122

In 2.978365 2.1060200000000004 10.212013148999999
In 2.978365 6.31806 10.212013148999999
In 0.0 4.212040000000001 8.106046850999999
P 1.4891825 6.31806 8.106046850999999
P 4.4675475 4.212040000000001 10.212013148999999
In 2.978365 2.1060200000000004 16.318033149
In 2.978365 6.31806 16.318033149
In 0.0 4.212040000000001 14.212066851
P 1.4891825 2.1060200000000004 14.212066851
P 1.4891825 6.31806 14.212066851
P 4.4675475 4.212040000000001 16.318033149
P 4.4675475 0.0 16.318033149
In 2.978365 6.31806 22.424053149
In 0.0 4.212040000000001 20.318086851
P 1.4891825 2.1060200000000004 20.318086851
P 1.4891825 6.31806 20.318086851
P 4.4675475 4.212040000000001 22.424053149
In 2.978365 10.530100000000003 4.105993148999999
In 2.978365 14.742140000000001 4.105993148999999
P 4.4675475 12.636119999999998 4.105993148999999
P 4.4675475 8.424080000000002 4.105993148999999
In 0.0 8.424080000000002 8.106046850999999
In 2.978365 10.530100000000003 10.212013148999999
In 2.978365 14.742140000000001 10.212013148999999
In 0.0 12.636119999999998 8.106046850999999
P 1.4891825 10.530100000000003 8.106046850999999
P 1.4891825 14.742140000000001 8.106046850999999
P 4.4675475 12.636119999999998 10.212013148999999
P 4.4675475 8.424080000000002 10.212013148999999
In 0.0 8.424080000000002 14.212066851
In 2.978365 10.530100000000003 16.318033149
In 2.978365 14.742140000000001 16.318033149
In 0.0 12.636119999999998 14.212066851
P 1.4891825 10.530100000000003 14.212066851
P 1.4891825 14.742140000000001 14.212066851
P 4.4675475 12.636119999999998 16.318033149
P 4.4675475 8.424080000000002 16.318033149
In 0.0 8.424080000000002 20.318086851
In 2.978365 10.530100000000003 22.424053149
In 2.978365 14.742140000000001 22.424053149
In 0.0 12.636119999999998 20.318086851
P 1.4891825 10.530100000000003 20.318086851
P 1.4891825 14.742140000000001 20.318086851
P 4.4675475 12.636119999999998 22.424053149
P 4.4675475 8.424080000000002 22.424053149
P 1.4891825 10.530100000000003 26.424106851
In 0.0 16.848160000000004 8.106046850999999
In 2.978365 18.954180000000004 10.212013148999999
P 1.4891825 18.954180000000004 8.106046850999999
P 4.4675475 21.060200000000005 10.212013148999999
P 4.4675475 16.848160000000004 10.212013148999999
In 0.0 16.848160000000004 14.212066851
In 2.978365 18.954180000000004 16.318033149
In 0.0 21.060200000000005 14.212066851
P 1.4891825 18.954180000000004 14.212066851
P 4.4675475 21.060200000000005 16.318033149
P 4.4675475 16.848160000000004 16.318033149
In 0.0 16.848160000000004 20.318086851
In 2.978365 18.954180000000004 22.424053149
P 1.4891825 18.954180000000004 20.318086851
P 4.4675475 16.848160000000004 22.424053149
In 8.935095 2.1060200000000004 10.212013148999999
In 8.935095 6.31806 10.212013148999999
In 5.956729999999999 4.212040000000001 8.106046850999999
P 7.4459125 6.31806 8.106046850999999
P 10.4242775 4.212040000000001 10.212013148999999
In 5.956729999999999 0.0 14.212066851
In 8.935095 2.1060200000000004 16.318033149
In 8.935095 6.31806 16.318033149
In 5.956729999999999 4.212040000000001 14.212066851
P 7.4459125 2.1060200000000004 14.212066851
P 7.4459125 6.31806 14.212066851
P 10.4242775 4.212040000000001 16.318033149
In 8.935095 6.31806 22.424053149
In 5.956729999999999 4.212040000000001 20.318086851
P 7.4459125 2.1060200000000004 20.318086851
P 7.4459125 6.31806 20.318086851
P 10.4242775 4.212040000000001 22.424053149
In 8.935095 10.530100000000003 4.105993148999999
In 5.956729999999999 8.424080000000002 8.106046850999999
In 8.935095 10.530100000000003 10.212013148999999
In 8.935095 14.742140000000001 10.212013148999999
In 5.956729999999999 12.636119999999998 8.106046850999999
P 7.4459125 10.530100000000003 8.106046850999999
P 7.4459125 14.742140000000001 8.106046850999999
P 10.4242775 12.636119999999998 10.212013148999999
P 10.4242775 8.424080000000002 10.212013148999999
In 5.956729999999999 8.424080000000002 14.212066851
In 8.935095 10.530100000000003 16.318033149
In 8.935095 14.742140000000001 16.318033149
In 5.956729999999999 12.636119999999998 14.212066851
P 7.4459125 10.530100000000003 14.212066851
P 7.4459125 14.742140000000001 14.212066851
P 10.4242775 12.636119999999998 16.318033149
P 10.4242775 8.424080000000002 16.318033149
In 5.956729999999999 8.424080000000002 20.318086851
In 8.935095 10.530100000000003 22.424053149
In 8.935095 14.742140000000001 22.424053149
In 5.956729999999999 12.636119999999998 20.318086851
P 7.4459125 10.530100000000003 20.318086851
P 7.4459125 14.742140000000001 20.318086851
P 10.4242775 12.636119999999998 22.424053149
P 10.4242775 8.424080000000002 22.424053149
In 5.956729999999999 8.424080000000002 26.424106851
In 5.956729999999999 12.636119999999998 26.424106851
P 7.4459125 10.530100000000003 26.424106851
P 7.4459125 14.742140000000001 26.424106851
In 5.956729999999999 16.848160000000004 8.106046850999999
In 8.935095 18.954180000000004 10.212013148999999
P 7.4459125 18.954180000000004 8.106046850999999
P 10.4242775 16.848160000000004 10.212013148999999
In 5.956729999999999 16.848160000000004 14.212066851
In 8.935095 18.954180000000004 16.318033149
In 5.956729999999999 21.060200000000005 14.212066851
P 7.4459125 18.954180000000004 14.212066851
P 10.4242775 21.060200000000005 16.318033149
P 10.4242775 16.848160000000004 16.318033149
In 5.956729999999999 16.848160000000004 20.318086851
In 8.935095 18.954180000000004 22.424053149
In 5.956729999999999 21.060200000000005 20.318086851
P 7.4459125 18.954180000000004 20.318086851
P 10.4242775 16.848160000000004 22.424053149
