96

P 8.4241221204 4.863669173899222 7.719566138799999
P 8.4241221204 4.863669173899222 12.5793461388
In 10.5301 10.943200925268624 1.9999938612
In 8.42408 7.295467283512416 1.9999938612
In 6.318060000000001 10.943200925268624 1.9999938612
P 6.318102120400001 8.51140281565543 2.8597861387999997
P 8.424122120400002 12.159136457411636 2.8597861387999997
P 12.636162120400002 12.159136457411636 2.8597861387999997
P 10.5301421204 8.51140281565543 2.8597861387999997
In 4.212040000000001 7.295467283512416 6.8597738612
In 10.5301 10.943200925268624 6.8597738612
In 8.42408 7.295467283512416 6.8597738612
In 6.318060000000001 10.943200925268624 6.8597738612
P 6.318102120400001 8.51140281565543 7.719566138799999
P 8.424122120400002 12.159136457411636 7.719566138799999
P 12.636162120400002 12.159136457411636 7.719566138799999
P 10.5301421204 8.51140281565543 7.719566138799999
In 4.212040000000001 7.295467283512416 11.7195538612
In 10.5301 10.943200925268624 11.7195538612
In 8.42408 7.295467283512416 11.7195538612
In 6.318060000000001 10.943200925268624 11.7195538612
P 6.318102120400001 8.51140281565543 12.5793461388
P 8.424122120400002 12.159136457411636 12.5793461388
P 12.636162120400002 12.159136457411636 12.5793461388
P 10.5301421204 8.51140281565543 12.5793461388
In 10.5301 10.943200925268624 16.5793338612
In 8.42408 7.295467283512416 16.5793338612
In 6.318060000000001 10.943200925268624 16.5793338612
P 6.318102120400001 8.51140281565543 17.4391261388
P 8.424122120400002 12.159136457411636 17.4391261388
P 12.636162120400002 12.159136457411636 17.4391261388
P 10.5301421204 8.51140281565543 17.4391261388
In 8.424080000000002 14.590934567024831 1.9999938612
In 14.742140000000001 18.238668208781032 1.9999938612
In 12.636120000000002 14.590934567024831 1.9999938612
In 10.530100000000001 18.238668208781032 1.9999938612
P 10.530142120400003 15.806870099167844 2.8597861387999997
P 12.636162120400002 19.45460374092405 2.8597861387999997
P 16.848202120400003 19.45460374092405 2.8597861387999997
P 14.742182120400003 15.806870099167844 2.8597861387999997
In 8.424080000000002 14.590934567024831 6.8597738612
In 14.742140000000001 18.238668208781032 6.8597738612
In 12.636120000000002 14.590934567024831 6.8597738612
In 10.530100000000001 18.238668208781032 6.8597738612
P 10.530142120400003 15.806870099167844 7.719566138799999
P 12.636162120400002 19.45460374092405 7.719566138799999
P 16.848202120400003 19.45460374092405 7.719566138799999
P 14.742182120400003 15.806870099167844 7.719566138799999
In 8.424080000000002 14.590934567024831 11.7195538612
In 14.742140000000001 18.238668208781032 11.7195538612
In 12.636120000000002 14.590934567024831 11.7195538612
In 10.530100000000001 18.238668208781032 11.7195538612
P 10.530142120400003 15.806870099167844 12.5793461388
P 12.636162120400002 19.45460374092405 12.5793461388
P 16.848202120400003 19.45460374092405 12.5793461388
P 14.742182120400003 15.806870099167844 12.5793461388
In 8.424080000000002 14.590934567024831 16.5793338612
In 14.742140000000001 18.238668208781032 16.5793338612
In 12.636120000000002 14.590934567024831 16.5793338612
In 10.530100000000001 18.238668208781032 16.5793338612
P 10.530142120400003 15.806870099167844 17.4391261388
P 12.636162120400002 19.45460374092405 17.4391261388
P 16.848202120400003 19.45460374092405 17.4391261388
P 14.742182120400003 15.806870099167844 17.4391261388
In 12.636120000000005 21.88640185053725 1.9999938612
In 18.954180000000008 25.534135492293455 1.9999938612
In 16.848160000000007 21.88640185053725 1.9999938612
In 14.742140000000006 25.534135492293455 1.9999938612
P 14.742182120400006 23.102337382680265 2.8597861387999997
P 16.848202120400007 26.75007102443647 2.8597861387999997
P 18.954222120400004 23.102337382680265 2.8597861387999997
In 12.636120000000005 21.88640185053725 6.8597738612
In 18.954180000000008 25.534135492293455 6.8597738612
In 16.848160000000007 21.88640185053725 6.8597738612
In 14.742140000000006 25.534135492293455 6.8597738612
P 14.742182120400006 23.102337382680265 7.719566138799999
P 16.848202120400007 26.75007102443647 7.719566138799999
P 21.060242120400005 26.75007102443647 7.719566138799999
P 18.954222120400004 23.102337382680265 7.719566138799999
In 12.636120000000005 21.88640185053725 11.7195538612
In 18.954180000000008 25.534135492293455 11.7195538612
In 16.848160000000007 21.88640185053725 11.7195538612
In 14.742140000000006 25.534135492293455 11.7195538612
P 14.742182120400006 23.102337382680265 12.5793461388
P 16.848202120400007 26.75007102443647 12.5793461388
P 21.060242120400005 26.75007102443647 12.5793461388
P 18.954222120400004 23.102337382680265 12.5793461388
In 12.636120000000005 21.88640185053725 16.5793338612
In 18.954180000000008 25.534135492293455 16.5793338612
In 16.848160000000007 21.88640185053725 16.5793338612
In 14.742140000000006 25.534135492293455 16.5793338612
P 14.742182120400006 23.102337382680265 17.4391261388
P 16.848202120400007 26.75007102443647 17.4391261388
P 18.954222120400004 23.102337382680265 17.4391261388
In 16.848160000000004 29.181869134049663 6.8597738612
In 16.848160000000004 29.181869134049663 11.7195538612
