24

P 1.4891825 1.4891825 6.467507051999999
P 4.4675475 4.4675475 6.467507051999999
In 0.0 0.0 10.467572947999999
In 2.978365 2.9783649999999997 10.467572947999999
In 2.978365 0.0 13.445860792199998
In 0.0 2.9783649999999997 13.445860792199998
P 1.4891825 1.4891825 14.935047051999998
P 1.4891825 4.4675475 11.956759207799998
P 4.4675475 4.4675475 14.935047051999998
P 4.4675475 1.4891825 11.956759207799998
In 2.978365 2.9783649999999997 18.935112948
P 4.4675475 1.4891825 20.424299207799997
In 5.956729999999999 2.9783649999999997 4.978320792199999
P 7.4459125 1.4891825 6.467507051999999
In 5.956729999999999 0.0 10.467572947999999
In 8.935095 2.9783649999999997 10.467572947999999
In 8.935095 0.0 13.445860792199998
In 5.956729999999999 2.9783649999999997 13.445860792199998
P 7.4459125 1.4891825 14.935047051999998
P 7.4459125 4.4675475 11.956759207799998
P 10.4242775 4.4675475 14.935047051999998
P 10.4242775 1.4891825 11.956759207799998
In 5.956729999999999 0.0 18.935112948
In 8.935095 2.9783649999999997 18.935112948
