24

P 1.4891825 1.4891825 6.467507051999999
P 4.4675475 4.4675475 6.467507051999999
In 0.0 0.0 10.467572947999999
In 2.9783649999999997 2.978365 10.467572947999999
In 2.9783649999999997 0.0 13.445860792199998
In 0.0 2.978365 13.445860792199998
P 1.4891825 1.4891825 14.935047051999998
P 1.4891825 4.4675475 11.956759207799998
P 4.4675475 4.4675475 14.935047051999998
P 4.4675475 1.4891825 11.956759207799998
In 2.9783649999999997 2.978365 18.935112948
P 1.4891825 4.4675475 20.424299207799997
In 2.9783649999999997 5.956729999999999 4.978320792199999
P 1.4891825 7.4459125 6.467507051999999
In 0.0 5.956729999999999 10.467572947999999
In 2.9783649999999997 8.935095 10.467572947999999
In 2.9783649999999997 5.956729999999999 13.445860792199998
In 0.0 8.935095 13.445860792199998
P 1.4891825 7.4459125 14.935047051999998
P 1.4891825 10.4242775 11.956759207799998
P 4.4675475 10.4242775 14.935047051999998
P 4.4675475 7.4459125 11.956759207799998
In 0.0 5.956729999999999 18.935112948
In 2.9783649999999997 8.935095 18.935112948
