46

In 8.935095000000002 2.978365 2.000032948
In 8.935095000000002 0.0 4.978320792199999
In 5.95673 2.978365 4.978320792199999
P 7.4459125 1.4891825 6.467507052
P 7.4459125 4.4675475 3.4892192077999997
P 10.424277500000002 4.4675475 6.467507052
P 10.424277500000002 1.4891825 3.4892192077999997
In 5.95673 5.956729999999999 2.000032948
In 8.935095000000002 8.935095 2.000032948
In 8.935095000000002 5.956729999999999 4.978320792199999
In 5.95673 8.935095 4.978320792199999
P 7.4459125 7.4459125 6.467507052
P 7.4459125 10.4242775 3.4892192077999997
P 10.424277500000002 10.4242775 6.467507052
P 10.424277500000002 7.4459125 3.4892192077999997
In 11.91346 0.0 2.000032948
In 14.891824999999999 2.978365 2.000032948
In 14.891824999999999 0.0 4.978320792199999
In 11.91346 2.978365 4.978320792199999
P 13.4026425 1.4891825 6.467507052
P 13.4026425 4.4675475 3.4892192077999997
P 16.381007500000003 4.4675475 6.467507052
P 16.381007500000003 1.4891825 3.4892192077999997
In 11.91346 5.956729999999999 2.000032948
In 14.891824999999999 8.935095 2.000032948
In 14.891824999999999 5.956729999999999 4.978320792199999
In 11.91346 8.935095 4.978320792199999
P 13.4026425 7.4459125 6.467507052
P 13.4026425 10.4242775 3.4892192077999997
P 16.381007500000003 10.4242775 6.467507052
P 16.381007500000003 7.4459125 3.4892192077999997
In 17.870190000000008 0.0 2.000032948
In 20.848555000000005 2.978365 2.000032948
In 20.848555000000005 0.0 4.978320792199999
In 17.870190000000008 2.978365 4.978320792199999
P 19.35937250000001 1.4891825 6.467507052
P 19.35937250000001 4.4675475 3.4892192077999997
P 22.337737500000003 4.4675475 6.467507052
P 22.337737500000003 1.4891825 3.4892192077999997
In 17.870190000000008 5.956729999999999 2.000032948
In 20.848555000000005 8.935095 2.000032948
In 20.848555000000005 5.956729999999999 4.978320792199999
In 17.870190000000008 8.935095 4.978320792199999
P 19.35937250000001 7.4459125 6.467507052
P 19.35937250000001 10.4242775 3.4892192077999997
P 22.337737500000003 7.4459125 3.4892192077999997
