50

P 4.4675475 4.4675475 6.467507051999999
In 2.9783649999999997 2.978365 10.467572947999999
In 0.0 2.978365 13.445860792199998
P 1.4891825 1.4891824999999999 14.935047051999998
P 1.4891825 4.4675475 11.956759207799998
P 4.4675475 4.4675475 14.935047051999998
P 4.4675475 1.4891824999999999 11.956759207799998
In 2.9783649999999997 5.95673 4.978320792199999
In 0.0 8.935095 4.978320792199999
P 1.4891825 7.4459125 6.467507051999999
P 1.4891825 10.4242775 3.4892192077999997
P 4.4675475 10.4242775 6.467507051999999
In 0.0 5.95673 10.467572947999999
In 2.9783649999999997 8.935095 10.467572947999999
In 2.9783649999999997 5.95673 13.445860792199998
In 0.0 8.935095 13.445860792199998
P 1.4891825 7.4459125 14.935047051999998
P 1.4891825 10.4242775 11.956759207799998
P 4.4675475 10.4242775 14.935047051999998
P 4.4675475 7.4459125 11.956759207799998
In 0.0 5.95673 18.935112948
In 2.9783649999999997 8.935095 18.935112948
In 0.0 8.935095 21.913400792199997
P 1.4891825 10.4242775 20.424299207799997
P 4.4675475 7.4459125 20.424299207799997
In 2.9783649999999997 11.913459999999999 4.978320792199999
In 0.0 14.891825 4.978320792199999
P 1.4891825 13.4026425 6.467507051999999
P 4.4675475 16.381007500000003 6.467507051999999
P 4.4675475 13.4026425 3.4892192077999997
In 0.0 11.913459999999999 10.467572947999999
In 2.9783649999999997 14.891825 10.467572947999999
In 2.9783649999999997 11.913459999999999 13.445860792199998
In 0.0 14.891825 13.445860792199998
P 1.4891825 13.4026425 14.935047051999998
P 1.4891825 16.381007500000003 11.956759207799998
P 4.4675475 16.381007500000003 14.935047051999998
P 4.4675475 13.4026425 11.956759207799998
In 0.0 11.913459999999999 18.935112948
In 2.9783649999999997 14.891825 18.935112948
In 2.9783649999999997 11.913459999999999 21.913400792199997
P 1.4891825 16.381007500000003 20.424299207799997
P 4.4675475 13.4026425 20.424299207799997
In 0.0 17.87019 10.467572947999999
In 2.9783649999999997 20.848555 10.467572947999999
In 2.9783649999999997 17.87019 13.445860792199998
In 0.0 20.848555 13.445860792199998
P 1.4891825 19.3593725 14.935047051999998
P 4.4675475 19.3593725 11.956759207799998
In 0.0 17.87019 18.935112948
