378

P 12.636162120400002 12.159136457411634 2.8597861387999997
In 10.530100000000001 10.94320092526862 6.8597738612
P 12.636162120400002 12.159136457411634 7.7195661388
P 10.5301421204 8.511402815655428 7.7195661388
In 10.530100000000001 10.94320092526862 11.719553861200001
P 8.424122120400002 12.159136457411634 12.5793461388
P 12.636162120400002 12.159136457411634 12.5793461388
P 10.5301421204 8.511402815655428 12.5793461388
In 10.530100000000001 10.94320092526862 16.579333861200002
P 12.636162120400002 12.159136457411634 17.439126138800003
P 10.5301421204 8.511402815655428 17.439126138800003
P 12.636162120400002 12.159136457411634 22.298906138800003
In 14.742140000000003 18.238668208781036 1.9999938612
In 12.63612 14.590934567024826 1.9999938612
P 12.636162120400002 19.454603740924046 2.8597861387999997
P 16.848202120400003 19.454603740924046 2.8597861387999997
P 14.742182120400003 15.80687009916784 2.8597861387999997
In 14.742140000000003 18.238668208781036 6.8597738612
In 12.63612 14.590934567024826 6.8597738612
In 10.530100000000003 18.238668208781036 6.8597738612
P 10.530142120400003 15.80687009916784 7.7195661388
P 12.636162120400002 19.454603740924046 7.7195661388
P 16.848202120400003 19.454603740924046 7.7195661388
P 14.742182120400003 15.80687009916784 7.7195661388
In 8.42408 14.590934567024826 11.719553861200001
In 14.742140000000003 18.238668208781036 11.719553861200001
In 12.63612 14.590934567024826 11.719553861200001
In 10.530100000000003 18.238668208781036 11.719553861200001
P 10.530142120400003 15.80687009916784 12.5793461388
P 12.636162120400002 19.454603740924046 12.5793461388
P 16.848202120400003 19.454603740924046 12.5793461388
P 14.742182120400003 15.80687009916784 12.5793461388
In 14.742140000000003 18.238668208781036 16.579333861200002
In 12.63612 14.590934567024826 16.579333861200002
In 10.530100000000003 18.238668208781036 16.579333861200002
P 10.530142120400003 15.80687009916784 17.439126138800003
P 12.636162120400002 19.454603740924046 17.439126138800003
P 16.848202120400003 19.454603740924046 17.439126138800003
P 14.742182120400003 15.80687009916784 17.439126138800003
In 14.742140000000003 18.238668208781036 21.439113861200003
In 12.63612 14.590934567024826 21.439113861200003
P 16.848202120400003 19.454603740924046 22.298906138800003
P 14.742182120400003 15.80687009916784 22.298906138800003
In 16.84816 21.88640185053724 1.9999938612
P 18.9542221204 23.102337382680254 2.8597861387999997
In 12.636120000000002 21.88640185053724 6.8597738612
In 18.95418 25.534135492293448 6.8597738612
In 16.84816 21.88640185053724 6.8597738612
P 14.742182120400003 23.102337382680254 7.7195661388
P 21.0602421204 26.750071024436462 7.7195661388
P 18.9542221204 23.102337382680254 7.7195661388
In 12.636120000000002 21.88640185053724 11.719553861200001
In 18.95418 25.534135492293448 11.719553861200001
In 16.84816 21.88640185053724 11.719553861200001
In 14.742140000000003 25.534135492293448 11.719553861200001
P 14.742182120400003 23.102337382680254 12.5793461388
P 16.848202120400003 26.750071024436462 12.5793461388
P 21.0602421204 26.750071024436462 12.5793461388
P 18.9542221204 23.102337382680254 12.5793461388
In 12.636120000000002 21.88640185053724 16.579333861200002
In 18.95418 25.534135492293448 16.579333861200002
In 16.84816 21.88640185053724 16.579333861200002
P 14.742182120400003 23.102337382680254 17.439126138800003
P 21.0602421204 26.750071024436462 17.439126138800003
P 18.9542221204 23.102337382680254 17.439126138800003
In 16.84816 21.88640185053724 21.439113861200003
P 18.9542221204 23.102337382680254 22.298906138800003
P 16.8482021204 4.863669173899221 2.8597861387999997
In 14.742140000000001 3.647733641756207 6.8597738612
P 12.636162120400002 4.863669173899221 7.7195661388
P 16.8482021204 4.863669173899221 7.7195661388
In 14.742140000000001 3.647733641756207 11.719553861200001
P 12.636162120400002 4.863669173899221 12.5793461388
P 16.8482021204 4.863669173899221 12.5793461388
P 14.742182120399997 1.215935532143014 12.5793461388
In 14.742140000000001 3.647733641756207 16.579333861200002
P 12.636162120400002 4.863669173899221 17.439126138800003
P 16.8482021204 4.863669173899221 17.439126138800003
P 16.8482021204 4.863669173899221 22.298906138800003
In 18.95418 10.94320092526862 1.9999938612
In 16.84816 7.295467283512414 1.9999938612
In 14.742140000000004 10.94320092526862 1.9999938612
P 14.742182120400003 8.511402815655428 2.8597861387999997
P 16.848202120400003 12.159136457411634 2.8597861387999997
P 21.060242120399998 12.159136457411634 2.8597861387999997
P 18.9542221204 8.511402815655428 2.8597861387999997
In 12.636120000000002 7.295467283512414 6.8597738612
In 18.95418 10.94320092526862 6.8597738612
In 16.84816 7.295467283512414 6.8597738612
In 14.742140000000004 10.94320092526862 6.8597738612
P 14.742182120400003 8.511402815655428 7.7195661388
P 16.848202120400003 12.159136457411634 7.7195661388
P 21.060242120399998 12.159136457411634 7.7195661388
P 18.9542221204 8.511402815655428 7.7195661388
In 12.636120000000002 7.295467283512414 11.719553861200001
In 18.95418 10.94320092526862 11.719553861200001
In 16.84816 7.295467283512414 11.719553861200001
In 14.742140000000004 10.94320092526862 11.719553861200001
P 14.742182120400003 8.511402815655428 12.5793461388
P 16.848202120400003 12.159136457411634 12.5793461388
P 21.060242120399998 12.159136457411634 12.5793461388
P 18.9542221204 8.511402815655428 12.5793461388
In 12.636120000000002 7.295467283512414 16.579333861200002
In 18.95418 10.94320092526862 16.579333861200002
In 16.84816 7.295467283512414 16.579333861200002
In 14.742140000000004 10.94320092526862 16.579333861200002
P 14.742182120400003 8.511402815655428 17.439126138800003
P 16.848202120400003 12.159136457411634 17.439126138800003
P 21.060242120399998 12.159136457411634 17.439126138800003
P 18.9542221204 8.511402815655428 17.439126138800003
In 12.636120000000002 7.295467283512414 21.439113861200003
In 18.95418 10.94320092526862 21.439113861200003
In 16.84816 7.295467283512414 21.439113861200003
In 14.742140000000004 10.94320092526862 21.439113861200003
P 14.742182120400003 8.511402815655428 22.298906138800003
P 16.848202120400003 12.159136457411634 22.298906138800003
P 21.060242120399998 12.159136457411634 22.298906138800003
P 18.9542221204 8.511402815655428 22.298906138800003
In 16.84816 14.590934567024826 1.9999938612
In 23.166220000000003 18.238668208781036 1.9999938612
In 21.060200000000002 14.590934567024826 1.9999938612
In 18.95418 18.238668208781036 1.9999938612
P 18.9542221204 15.80687009916784 2.8597861387999997
P 21.0602421204 19.454603740924046 2.8597861387999997
P 25.2722821204 19.454603740924046 2.8597861387999997
P 23.1662621204 15.80687009916784 2.8597861387999997
In 16.84816 14.590934567024826 6.8597738612
In 23.166220000000003 18.238668208781036 6.8597738612
In 21.060200000000002 14.590934567024826 6.8597738612
In 18.95418 18.238668208781036 6.8597738612
P 18.9542221204 15.80687009916784 7.7195661388
P 21.0602421204 19.454603740924046 7.7195661388
P 25.2722821204 19.454603740924046 7.7195661388
P 23.1662621204 15.80687009916784 7.7195661388
In 16.84816 14.590934567024826 11.719553861200001
In 23.166220000000003 18.238668208781036 11.719553861200001
In 21.060200000000002 14.590934567024826 11.719553861200001
In 18.95418 18.238668208781036 11.719553861200001
P 18.9542221204 15.80687009916784 12.5793461388
P 21.0602421204 19.454603740924046 12.5793461388
P 25.2722821204 19.454603740924046 12.5793461388
P 23.1662621204 15.80687009916784 12.5793461388
In 16.84816 14.590934567024826 16.579333861200002
In 23.166220000000003 18.238668208781036 16.579333861200002
In 21.060200000000002 14.590934567024826 16.579333861200002
In 18.95418 18.238668208781036 16.579333861200002
P 18.9542221204 15.80687009916784 17.439126138800003
P 21.0602421204 19.454603740924046 17.439126138800003
P 25.2722821204 19.454603740924046 17.439126138800003
P 23.1662621204 15.80687009916784 17.439126138800003
In 16.84816 14.590934567024826 21.439113861200003
In 23.166220000000003 18.238668208781036 21.439113861200003
In 21.060200000000002 14.590934567024826 21.439113861200003
In 18.95418 18.238668208781036 21.439113861200003
P 18.9542221204 15.80687009916784 22.298906138800003
P 21.0602421204 19.454603740924046 22.298906138800003
P 25.2722821204 19.454603740924046 22.298906138800003
P 23.1662621204 15.80687009916784 22.298906138800003
In 21.060200000000002 21.88640185053724 1.9999938612
In 25.272240000000004 21.88640185053724 1.9999938612
P 23.1662621204 23.102337382680254 2.8597861387999997
P 27.378302120399997 23.102337382680254 2.8597861387999997
In 21.060200000000002 21.88640185053724 6.8597738612
In 27.378260000000004 25.534135492293448 6.8597738612
In 25.272240000000004 21.88640185053724 6.8597738612
In 23.166220000000003 25.534135492293448 6.8597738612
P 23.1662621204 23.102337382680254 7.7195661388
P 25.2722821204 26.750071024436462 7.7195661388
P 27.378302120399997 23.102337382680254 7.7195661388
In 21.060200000000002 21.88640185053724 11.719553861200001
In 27.378260000000004 25.534135492293448 11.719553861200001
In 25.272240000000004 21.88640185053724 11.719553861200001
In 23.166220000000003 25.534135492293448 11.719553861200001
P 23.1662621204 23.102337382680254 12.5793461388
P 25.2722821204 26.750071024436462 12.5793461388
P 29.484322120399998 26.750071024436462 12.5793461388
P 27.378302120399997 23.102337382680254 12.5793461388
In 21.060200000000002 21.88640185053724 16.579333861200002
In 27.378260000000004 25.534135492293448 16.579333861200002
In 25.272240000000004 21.88640185053724 16.579333861200002
In 23.166220000000003 25.534135492293448 16.579333861200002
P 23.1662621204 23.102337382680254 17.439126138800003
P 25.2722821204 26.750071024436462 17.439126138800003
P 27.378302120399997 23.102337382680254 17.439126138800003
In 21.060200000000002 21.88640185053724 21.439113861200003
In 25.272240000000004 21.88640185053724 21.439113861200003
In 23.166220000000003 25.534135492293448 21.439113861200003
P 23.1662621204 23.102337382680254 22.298906138800003
P 27.378302120399997 23.102337382680254 22.298906138800003
In 23.166220000000003 3.647733641756207 1.9999938612
In 18.954179999999997 3.647733641756207 1.9999938612
P 21.0602421204 4.863669173899221 2.8597861387999997
P 25.2722821204 4.863669173899221 2.8597861387999997
P 23.1662621204 1.215935532143014 2.8597861387999997
In 23.166220000000003 3.647733641756207 6.8597738612
In 21.060200000000002 0.0 6.8597738612
In 18.954179999999997 3.647733641756207 6.8597738612
P 18.9542221204 1.215935532143014 7.7195661388
P 21.0602421204 4.863669173899221 7.7195661388
P 25.2722821204 4.863669173899221 7.7195661388
P 23.1662621204 1.215935532143014 7.7195661388
In 16.848159999999996 0.0 11.719553861200001
In 23.166220000000003 3.647733641756207 11.719553861200001
In 21.060200000000002 0.0 11.719553861200001
In 18.954179999999997 3.647733641756207 11.719553861200001
P 18.9542221204 1.215935532143014 12.5793461388
P 21.0602421204 4.863669173899221 12.5793461388
P 25.2722821204 4.863669173899221 12.5793461388
P 23.1662621204 1.215935532143014 12.5793461388
In 23.166220000000003 3.647733641756207 16.579333861200002
In 21.060200000000002 0.0 16.579333861200002
In 18.954179999999997 3.647733641756207 16.579333861200002
P 18.9542221204 1.215935532143014 17.439126138800003
P 21.0602421204 4.863669173899221 17.439126138800003
P 25.2722821204 4.863669173899221 17.439126138800003
P 23.1662621204 1.215935532143014 17.439126138800003
In 23.166220000000003 3.647733641756207 21.439113861200003
In 18.954179999999997 3.647733641756207 21.439113861200003
P 21.0602421204 4.863669173899221 22.298906138800003
P 25.2722821204 4.863669173899221 22.298906138800003
In 21.0602 7.295467283512414 1.9999938612
In 27.378260000000004 10.94320092526862 1.9999938612
In 25.272240000000004 7.295467283512414 1.9999938612
In 23.166220000000003 10.94320092526862 1.9999938612
P 23.166262120400003 8.511402815655428 2.8597861387999997
P 25.272282120400003 12.159136457411634 2.8597861387999997
P 29.4843221204 12.159136457411634 2.8597861387999997
P 27.3783021204 8.511402815655428 2.8597861387999997
In 21.0602 7.295467283512414 6.8597738612
In 27.378260000000004 10.94320092526862 6.8597738612
In 25.272240000000004 7.295467283512414 6.8597738612
In 23.166220000000003 10.94320092526862 6.8597738612
P 23.166262120400003 8.511402815655428 7.7195661388
P 25.272282120400003 12.159136457411634 7.7195661388
P 29.4843221204 12.159136457411634 7.7195661388
P 27.3783021204 8.511402815655428 7.7195661388
In 21.0602 7.295467283512414 11.719553861200001
In 27.378260000000004 10.94320092526862 11.719553861200001
In 25.272240000000004 7.295467283512414 11.719553861200001
In 23.166220000000003 10.94320092526862 11.719553861200001
P 23.166262120400003 8.511402815655428 12.5793461388
P 25.272282120400003 12.159136457411634 12.5793461388
P 29.4843221204 12.159136457411634 12.5793461388
P 27.3783021204 8.511402815655428 12.5793461388
In 21.0602 7.295467283512414 16.579333861200002
In 27.378260000000004 10.94320092526862 16.579333861200002
In 25.272240000000004 7.295467283512414 16.579333861200002
In 23.166220000000003 10.94320092526862 16.579333861200002
P 23.166262120400003 8.511402815655428 17.439126138800003
P 25.272282120400003 12.159136457411634 17.439126138800003
P 29.4843221204 12.159136457411634 17.439126138800003
P 27.3783021204 8.511402815655428 17.439126138800003
In 21.0602 7.295467283512414 21.439113861200003
In 27.378260000000004 10.94320092526862 21.439113861200003
In 25.272240000000004 7.295467283512414 21.439113861200003
In 23.166220000000003 10.94320092526862 21.439113861200003
P 23.166262120400003 8.511402815655428 22.298906138800003
P 25.272282120400003 12.159136457411634 22.298906138800003
P 29.4843221204 12.159136457411634 22.298906138800003
P 27.3783021204 8.511402815655428 22.298906138800003
In 25.272239999999996 14.590934567024826 1.9999938612
In 31.590300000000003 18.238668208781036 1.9999938612
In 29.484280000000002 14.590934567024826 1.9999938612
In 27.378259999999997 18.238668208781036 1.9999938612
P 27.378302120400004 15.80687009916784 2.8597861387999997
P 29.484322120400005 19.454603740924046 2.8597861387999997
P 33.6963621204 19.454603740924046 2.8597861387999997
P 31.590342120400003 15.80687009916784 2.8597861387999997
In 25.272239999999996 14.590934567024826 6.8597738612
In 31.590300000000003 18.238668208781036 6.8597738612
In 29.484280000000002 14.590934567024826 6.8597738612
In 27.378259999999997 18.238668208781036 6.8597738612
P 27.378302120400004 15.80687009916784 7.7195661388
P 29.484322120400005 19.454603740924046 7.7195661388
P 33.6963621204 19.454603740924046 7.7195661388
P 31.590342120400003 15.80687009916784 7.7195661388
In 25.272239999999996 14.590934567024826 11.719553861200001
In 31.590300000000003 18.238668208781036 11.719553861200001
In 29.484280000000002 14.590934567024826 11.719553861200001
In 27.378259999999997 18.238668208781036 11.719553861200001
P 27.378302120400004 15.80687009916784 12.5793461388
P 29.484322120400005 19.454603740924046 12.5793461388
P 33.6963621204 19.454603740924046 12.5793461388
P 31.590342120400003 15.80687009916784 12.5793461388
In 25.272239999999996 14.590934567024826 16.579333861200002
In 31.590300000000003 18.238668208781036 16.579333861200002
In 29.484280000000002 14.590934567024826 16.579333861200002
In 27.378259999999997 18.238668208781036 16.579333861200002
P 27.378302120400004 15.80687009916784 17.439126138800003
P 29.484322120400005 19.454603740924046 17.439126138800003
P 33.6963621204 19.454603740924046 17.439126138800003
P 31.590342120400003 15.80687009916784 17.439126138800003
In 25.272239999999996 14.590934567024826 21.439113861200003
In 31.590300000000003 18.238668208781036 21.439113861200003
In 29.484280000000002 14.590934567024826 21.439113861200003
In 27.378259999999997 18.238668208781036 21.439113861200003
P 27.378302120400004 15.80687009916784 22.298906138800003
P 29.484322120400005 19.454603740924046 22.298906138800003
P 31.590342120400003 15.80687009916784 22.298906138800003
In 29.48428 21.88640185053724 1.9999938612
In 29.48428 21.88640185053724 6.8597738612
In 33.69632 21.88640185053724 6.8597738612
P 31.5903421204 23.102337382680254 7.7195661388
In 29.48428 21.88640185053724 11.719553861200001
In 33.69632 21.88640185053724 11.719553861200001
In 31.5903 25.534135492293448 11.719553861200001
P 31.5903421204 23.102337382680254 12.5793461388
In 29.48428 21.88640185053724 16.579333861200002
In 33.69632 21.88640185053724 16.579333861200002
P 31.5903421204 23.102337382680254 17.439126138800003
In 29.48428 21.88640185053724 21.439113861200003
In 27.37826 3.647733641756207 1.9999938612
P 29.484322120399998 4.863669173899221 2.8597861387999997
In 25.27224 0.0 6.8597738612
In 31.590299999999996 3.647733641756207 6.8597738612
In 27.37826 3.647733641756207 6.8597738612
P 27.378302120399997 1.215935532143014 7.7195661388
P 29.484322120399998 4.863669173899221 7.7195661388
P 33.696362120399996 4.863669173899221 7.7195661388
In 25.27224 0.0 11.719553861200001
In 31.590299999999996 3.647733641756207 11.719553861200001
In 29.484279999999995 0.0 11.719553861200001
In 27.37826 3.647733641756207 11.719553861200001
P 27.378302120399997 1.215935532143014 12.5793461388
P 29.484322120399998 4.863669173899221 12.5793461388
P 33.696362120399996 4.863669173899221 12.5793461388
P 31.5903421204 1.215935532143014 12.5793461388
In 25.27224 0.0 16.579333861200002
In 31.590299999999996 3.647733641756207 16.579333861200002
In 27.37826 3.647733641756207 16.579333861200002
P 27.378302120399997 1.215935532143014 17.439126138800003
P 29.484322120399998 4.863669173899221 17.439126138800003
P 33.696362120399996 4.863669173899221 17.439126138800003
In 27.37826 3.647733641756207 21.439113861200003
P 29.484322120399998 4.863669173899221 22.298906138800003
In 29.484280000000002 7.295467283512414 1.9999938612
In 31.590300000000003 10.94320092526862 1.9999938612
P 31.5903421204 8.511402815655428 2.8597861387999997
P 33.696362120399996 12.159136457411634 2.8597861387999997
In 29.484280000000002 7.295467283512414 6.8597738612
In 35.80234 10.94320092526862 6.8597738612
In 33.69631999999999 7.295467283512414 6.8597738612
In 31.590300000000003 10.94320092526862 6.8597738612
P 31.5903421204 8.511402815655428 7.7195661388
P 33.696362120399996 12.159136457411634 7.7195661388
P 35.802382120400004 8.511402815655428 7.7195661388
In 29.484280000000002 7.295467283512414 11.719553861200001
In 35.80234 10.94320092526862 11.719553861200001
In 33.69631999999999 7.295467283512414 11.719553861200001
In 31.590300000000003 10.94320092526862 11.719553861200001
P 31.5903421204 8.511402815655428 12.5793461388
P 33.696362120399996 12.159136457411634 12.5793461388
P 37.9084021204 12.159136457411634 12.5793461388
P 35.802382120400004 8.511402815655428 12.5793461388
In 29.484280000000002 7.295467283512414 16.579333861200002
In 35.80234 10.94320092526862 16.579333861200002
In 33.69631999999999 7.295467283512414 16.579333861200002
In 31.590300000000003 10.94320092526862 16.579333861200002
P 31.5903421204 8.511402815655428 17.439126138800003
P 33.696362120399996 12.159136457411634 17.439126138800003
P 35.802382120400004 8.511402815655428 17.439126138800003
In 29.484280000000002 7.295467283512414 21.439113861200003
In 33.69631999999999 7.295467283512414 21.439113861200003
In 31.590300000000003 10.94320092526862 21.439113861200003
P 31.5903421204 8.511402815655428 22.298906138800003
P 33.696362120399996 12.159136457411634 22.298906138800003
In 33.69632 14.590934567024826 1.9999938612
In 33.69632 14.590934567024826 6.8597738612
In 35.80234 18.238668208781036 6.8597738612
P 35.80238212039999 15.80687009916784 7.7195661388
In 33.69632 14.590934567024826 11.719553861200001
In 37.908359999999995 14.590934567024826 11.719553861200001
In 35.80234 18.238668208781036 11.719553861200001
P 35.80238212039999 15.80687009916784 12.5793461388
In 33.69632 14.590934567024826 16.579333861200002
In 35.80234 18.238668208781036 16.579333861200002
P 35.80238212039999 15.80687009916784 17.439126138800003
In 33.69632 14.590934567024826 21.439113861200003
