16

In 2.978365 0.0 4.978320792199999
P 1.4891825 1.4891825 6.467507052
P 4.4675475 4.4675475 6.467507052
P 4.4675475 1.4891825 3.4892192077999997
In 2.978365 2.9783649999999997 10.467572947999999
In 2.978365 0.0 13.445860792199998
P 1.4891825 4.4675475 11.9567592078
P 4.4675475 1.4891825 11.9567592078
In 8.935095 0.0 4.978320792199999
In 5.956729999999999 2.9783649999999997 4.978320792199999
P 7.4459125 1.4891825 6.467507052
P 7.4459125 4.4675475 3.4892192077999997
In 5.956729999999999 0.0 10.467572947999999
In 8.935095 2.9783649999999997 10.467572947999999
In 5.956729999999999 2.9783649999999997 13.445860792199998
P 7.4459125 4.4675475 11.9567592078
