70

In 2.978365 2.9783649999999997 10.467572947999999
In 2.978365 0.0 13.445860792199998
In 0.0 2.9783649999999997 13.445860792199998
P 1.4891825 1.4891825 14.935047052
P 1.4891825 4.4675475 11.9567592078
P 4.4675475 4.4675475 14.935047052
P 4.4675475 1.4891825 11.9567592078
In 0.0 0.0 18.935112948
In 2.978365 2.9783649999999997 18.935112948
In 2.978365 0.0 21.913400792199997
In 0.0 2.9783649999999997 21.913400792199997
P 1.4891825 1.4891825 23.402587052
P 1.4891825 4.4675475 20.424299207799997
P 4.4675475 4.4675475 23.402587052
P 4.4675475 1.4891825 20.424299207799997
In 0.0 0.0 27.402652948000004
In 2.978365 2.9783649999999997 27.402652948000004
In 2.978365 0.0 30.3809407922
In 0.0 2.9783649999999997 30.3809407922
P 1.4891825 1.4891825 31.870127052000004
P 1.4891825 4.4675475 28.8918392078
P 4.4675475 4.4675475 31.870127052000004
P 4.4675475 1.4891825 28.8918392078
In 5.95673 0.0 10.467572947999999
In 8.935094999999999 2.9783649999999997 10.467572947999999
In 8.935094999999999 0.0 13.445860792199998
In 5.95673 2.9783649999999997 13.445860792199998
P 7.4459125 1.4891825 14.935047052
P 7.4459125 4.4675475 11.9567592078
P 10.4242775 4.4675475 14.935047052
P 10.4242775 1.4891825 11.9567592078
In 5.95673 0.0 18.935112948
In 8.935094999999999 2.9783649999999997 18.935112948
In 8.935094999999999 0.0 21.913400792199997
In 5.95673 2.9783649999999997 21.913400792199997
P 7.4459125 1.4891825 23.402587052
P 7.4459125 4.4675475 20.424299207799997
P 10.4242775 4.4675475 23.402587052
P 10.4242775 1.4891825 20.424299207799997
In 5.95673 0.0 27.402652948000004
In 8.935094999999999 2.9783649999999997 27.402652948000004
In 8.935094999999999 0.0 30.3809407922
In 5.95673 2.9783649999999997 30.3809407922
P 7.4459125 1.4891825 31.870127052000004
P 7.4459125 4.4675475 28.8918392078
P 10.4242775 4.4675475 31.870127052000004
P 10.4242775 1.4891825 28.8918392078
In 11.91346 0.0 10.467572947999999
In 14.891825 2.9783649999999997 10.467572947999999
In 14.891825 0.0 13.445860792199998
In 11.91346 2.9783649999999997 13.445860792199998
P 13.4026425 1.4891825 14.935047052
P 13.4026425 4.4675475 11.9567592078
P 16.381007500000003 4.4675475 14.935047052
P 16.381007500000003 1.4891825 11.9567592078
In 11.91346 0.0 18.935112948
In 14.891825 2.9783649999999997 18.935112948
In 14.891825 0.0 21.913400792199997
In 11.91346 2.9783649999999997 21.913400792199997
P 13.4026425 1.4891825 23.402587052
P 13.4026425 4.4675475 20.424299207799997
P 16.381007500000003 4.4675475 23.402587052
P 16.381007500000003 1.4891825 20.424299207799997
In 11.91346 0.0 27.402652948000004
In 14.891825 2.9783649999999997 27.402652948000004
In 14.891825 0.0 30.3809407922
In 11.91346 2.9783649999999997 30.3809407922
P 13.4026425 1.4891825 31.870127052000004
P 13.4026425 4.4675475 28.8918392078
P 16.381007500000003 1.4891825 28.8918392078
