54

In 10.530100000000001 10.94320092526862 1.9999938612
P 8.424122120400002 12.159136457411634 2.8597861387999997
P 12.636162120400003 12.159136457411634 2.8597861387999997
P 10.5301421204 8.511402815655428 2.8597861387999997
In 8.42408 14.590934567024826 1.9999938612
In 14.742140000000003 18.238668208781036 1.9999938612
In 12.636120000000002 14.590934567024826 1.9999938612
In 10.530100000000003 18.238668208781036 1.9999938612
P 10.530142120400003 15.80687009916784 2.8597861387999997
P 12.636162120400002 19.454603740924046 2.8597861387999997
P 16.848202120400003 19.454603740924046 2.8597861387999997
P 14.742182120400003 15.80687009916784 2.8597861387999997
In 12.636120000000002 21.88640185053724 1.9999938612
In 16.84816 21.88640185053724 1.9999938612
P 14.742182120400003 23.102337382680254 2.8597861387999997
P 18.9542221204 23.102337382680254 2.8597861387999997
In 14.74214 3.647733641756207 1.9999938612
P 12.636162120400002 4.863669173899221 2.8597861387999997
P 16.848202120400003 4.863669173899221 2.8597861387999997
In 12.636120000000002 7.295467283512414 1.9999938612
In 18.954180000000004 10.94320092526862 1.9999938612
In 16.84816 7.295467283512414 1.9999938612
In 14.742140000000004 10.94320092526862 1.9999938612
P 14.742182120400003 8.511402815655428 2.8597861387999997
P 16.848202120400003 12.159136457411634 2.8597861387999997
P 21.0602421204 12.159136457411634 2.8597861387999997
P 18.954222120400004 8.511402815655428 2.8597861387999997
In 16.84816 14.590934567024826 1.9999938612
In 23.16622 18.238668208781036 1.9999938612
In 21.0602 14.590934567024826 1.9999938612
In 18.95418 18.238668208781036 1.9999938612
P 18.9542221204 15.80687009916784 2.8597861387999997
P 21.0602421204 19.454603740924046 2.8597861387999997
P 25.2722821204 19.454603740924046 2.8597861387999997
P 23.1662621204 15.80687009916784 2.8597861387999997
In 21.060200000000002 21.88640185053724 1.9999938612
In 25.272240000000007 21.88640185053724 1.9999938612
P 23.166262120400003 23.102337382680254 2.8597861387999997
In 23.166220000000006 3.647733641756207 1.9999938612
In 18.954180000000004 3.647733641756207 1.9999938612
P 21.0602421204 4.863669173899221 2.8597861387999997
P 25.272282120400003 4.863669173899221 2.8597861387999997
In 21.060200000000005 7.295467283512414 1.9999938612
In 27.378260000000004 10.94320092526862 1.9999938612
In 25.272240000000007 7.295467283512414 1.9999938612
In 23.166220000000003 10.94320092526862 1.9999938612
P 23.166262120400003 8.511402815655428 2.8597861387999997
P 25.272282120400003 12.159136457411634 2.8597861387999997
P 29.484322120400005 12.159136457411634 2.8597861387999997
P 27.378302120400004 8.511402815655428 2.8597861387999997
In 25.272240000000004 14.590934567024826 1.9999938612
In 29.484280000000005 14.590934567024826 1.9999938612
In 27.378260000000004 18.238668208781036 1.9999938612
P 27.378302120400008 15.80687009916784 2.8597861387999997
