152

In 2.978365 6.31806 4.105993149
P 4.4675475 4.212040000000001 4.105993149
In 2.978365 6.31806 10.212013148999999
P 1.4891824999999999 6.31806 8.106046850999999
P 4.4675475 4.212040000000001 10.212013148999999
In 2.978365 10.530100000000003 4.105993149
In 2.978365 14.742140000000001 4.105993149
P 4.4675475 12.636119999999998 4.105993149
P 4.4675475 8.424080000000002 4.105993149
In 2.978365 10.530100000000003 10.212013148999999
In 2.978365 14.742140000000001 10.212013148999999
P 1.4891824999999999 10.530100000000003 8.106046850999999
P 1.4891824999999999 14.742140000000001 8.106046850999999
P 4.4675475 12.636119999999998 10.212013148999999
P 4.4675475 8.424080000000002 10.212013148999999
In 2.978365 10.530100000000003 16.318033148999998
P 1.4891824999999999 10.530100000000003 14.212066850999998
P 4.4675475 12.636119999999998 16.318033148999998
P 4.4675475 8.424080000000002 16.318033148999998
P 4.4675475 16.848160000000004 4.105993149
In 2.978365 18.954180000000004 10.212013148999999
P 4.4675475 16.848160000000004 10.212013148999999
P 4.4675475 16.848160000000004 16.318033148999998
In 8.935095 2.1060200000000004 4.105993149
In 8.935095 6.31806 4.105993149
P 7.4459125 6.31806 2.000026851
P 10.4242775 4.212040000000001 4.105993149
In 8.935095 2.1060200000000004 10.212013148999999
In 8.935095 6.31806 10.212013148999999
In 5.95673 4.212040000000001 8.106046850999999
P 7.4459125 2.1060200000000004 8.106046850999999
P 7.4459125 6.31806 8.106046850999999
P 10.4242775 4.212040000000001 10.212013148999999
In 8.935095 6.31806 16.318033148999998
In 5.95673 4.212040000000001 14.212066850999998
P 7.4459125 6.31806 14.212066850999998
P 10.4242775 4.212040000000001 16.318033148999998
In 5.95673 8.424080000000002 2.000026851
In 8.935095 10.530100000000003 4.105993149
In 8.935095 14.742140000000001 4.105993149
In 5.95673 12.636119999999998 2.000026851
P 7.4459125 10.530100000000003 2.000026851
P 7.4459125 14.742140000000001 2.000026851
P 10.4242775 12.636119999999998 4.105993149
P 10.4242775 8.424080000000002 4.105993149
In 5.95673 8.424080000000002 8.106046850999999
In 8.935095 10.530100000000003 10.212013148999999
In 8.935095 14.742140000000001 10.212013148999999
In 5.95673 12.636119999999998 8.106046850999999
P 7.4459125 10.530100000000003 8.106046850999999
P 7.4459125 14.742140000000001 8.106046850999999
P 10.4242775 12.636119999999998 10.212013148999999
P 10.4242775 8.424080000000002 10.212013148999999
In 5.95673 8.424080000000002 14.212066850999998
In 8.935095 10.530100000000003 16.318033148999998
In 8.935095 14.742140000000001 16.318033148999998
In 5.95673 12.636119999999998 14.212066850999998
P 7.4459125 10.530100000000003 14.212066850999998
P 7.4459125 14.742140000000001 14.212066850999998
P 10.4242775 12.636119999999998 16.318033148999998
P 10.4242775 8.424080000000002 16.318033148999998
In 5.95673 16.848160000000004 2.000026851
In 8.935095 18.954180000000004 4.105993149
P 7.4459125 18.954180000000004 2.000026851
P 10.4242775 21.060200000000005 4.105993149
P 10.4242775 16.848160000000004 4.105993149
In 5.95673 16.848160000000004 8.106046850999999
In 8.935095 18.954180000000004 10.212013148999999
In 5.95673 21.060200000000005 8.106046850999999
P 7.4459125 18.954180000000004 8.106046850999999
P 10.4242775 21.060200000000005 10.212013148999999
P 10.4242775 16.848160000000004 10.212013148999999
In 5.95673 16.848160000000004 14.212066850999998
In 8.935095 18.954180000000004 16.318033148999998
P 7.4459125 18.954180000000004 14.212066850999998
P 10.4242775 16.848160000000004 16.318033148999998
In 14.891825 6.31806 4.105993149
In 11.913459999999999 4.212040000000001 2.000026851
P 13.4026425 6.31806 2.000026851
P 16.381007500000003 4.212040000000001 4.105993149
In 14.891825 2.1060200000000004 10.212013148999999
In 14.891825 6.31806 10.212013148999999
In 11.913459999999999 4.212040000000001 8.106046850999999
P 13.4026425 2.1060200000000004 8.106046850999999
P 13.4026425 6.31806 8.106046850999999
P 16.381007500000003 4.212040000000001 10.212013148999999
In 14.891825 6.31806 16.318033148999998
In 11.913459999999999 4.212040000000001 14.212066850999998
P 13.4026425 2.1060200000000004 14.212066850999998
P 13.4026425 6.31806 14.212066850999998
In 11.913459999999999 8.424080000000002 2.000026851
In 14.891825 10.530100000000003 4.105993149
In 14.891825 14.742140000000001 4.105993149
In 11.913459999999999 12.636119999999998 2.000026851
P 13.4026425 10.530100000000003 2.000026851
P 13.4026425 14.742140000000001 2.000026851
P 16.381007500000003 12.636119999999998 4.105993149
P 16.381007500000003 8.424080000000002 4.105993149
In 11.913459999999999 8.424080000000002 8.106046850999999
In 14.891825 10.530100000000003 10.212013148999999
In 14.891825 14.742140000000001 10.212013148999999
In 11.913459999999999 12.636119999999998 8.106046850999999
P 13.4026425 10.530100000000003 8.106046850999999
P 13.4026425 14.742140000000001 8.106046850999999
P 16.381007500000003 12.636119999999998 10.212013148999999
P 16.381007500000003 8.424080000000002 10.212013148999999
In 11.913459999999999 8.424080000000002 14.212066850999998
In 14.891825 10.530100000000003 16.318033148999998
In 14.891825 14.742140000000001 16.318033148999998
In 11.913459999999999 12.636119999999998 14.212066850999998
P 13.4026425 10.530100000000003 14.212066850999998
P 13.4026425 14.742140000000001 14.212066850999998
P 16.381007500000003 12.636119999999998 16.318033148999998
P 16.381007500000003 8.424080000000002 16.318033148999998
In 11.913459999999999 16.848160000000004 2.000026851
In 14.891825 18.954180000000004 4.105993149
P 13.4026425 18.954180000000004 2.000026851
P 16.381007500000003 16.848160000000004 4.105993149
In 11.913459999999999 16.848160000000004 8.106046850999999
In 14.891825 18.954180000000004 10.212013148999999
In 11.913459999999999 21.060200000000005 8.106046850999999
P 13.4026425 18.954180000000004 8.106046850999999
P 16.381007500000003 21.060200000000005 10.212013148999999
P 16.381007500000003 16.848160000000004 10.212013148999999
In 11.913459999999999 16.848160000000004 14.212066850999998
In 14.891825 18.954180000000004 16.318033148999998
In 11.913459999999999 21.060200000000005 14.212066850999998
P 13.4026425 18.954180000000004 14.212066850999998
P 16.381007500000003 16.848160000000004 16.318033148999998
In 20.848555 6.31806 10.212013148999999
In 17.87019 4.212040000000001 8.106046850999999
P 19.3593725 6.31806 8.106046850999999
In 17.87019 4.212040000000001 14.212066850999998
P 19.3593725 6.31806 14.212066850999998
In 17.87019 8.424080000000002 2.000026851
In 20.848555 10.530100000000003 4.105993149
In 17.87019 12.636119999999998 2.000026851
P 19.3593725 10.530100000000003 2.000026851
In 17.87019 8.424080000000002 8.106046850999999
In 20.848555 10.530100000000003 10.212013148999999
In 20.848555 14.742140000000001 10.212013148999999
In 17.87019 12.636119999999998 8.106046850999999
P 19.3593725 10.530100000000003 8.106046850999999
P 19.3593725 14.742140000000001 8.106046850999999
In 17.87019 8.424080000000002 14.212066850999998
In 17.87019 12.636119999999998 14.212066850999998
P 19.3593725 10.530100000000003 14.212066850999998
P 19.3593725 14.742140000000001 14.212066850999998
In 17.87019 16.848160000000004 2.000026851
In 17.87019 16.848160000000004 8.106046850999999
P 19.3593725 18.954180000000004 8.106046850999999
In 17.87019 16.848160000000004 14.212066850999998
