20

In 2.9783649999999997 6.31806 4.105993149
P 4.4675475 4.21204 4.105993149
In 2.9783649999999997 2.10602 10.212013148999999
In 2.9783649999999997 6.31806 10.212013148999999
In 0.0 4.21204 8.106046850999999
P 1.4891825 2.10602 8.106046850999999
P 1.4891825 6.31806 8.106046850999999
P 4.4675475 4.21204 10.212013148999999
In 0.0 4.21204 14.212066850999998
P 1.4891825 6.31806 14.212066850999998
In 2.9783649999999997 10.530100000000001 4.105993149
P 4.4675475 8.424079999999998 4.105993149
In 0.0 8.424079999999998 8.106046850999999
In 2.9783649999999997 10.530100000000001 10.212013148999999
In 0.0 12.63612 8.106046850999999
P 1.4891825 10.530100000000001 8.106046850999999
P 4.4675475 12.63612 10.212013148999999
P 4.4675475 8.424079999999998 10.212013148999999
In 0.0 8.424079999999998 14.212066850999998
P 1.4891825 10.530100000000001 14.212066850999998
