60

In 6.31806 3.647733641756207 6.8597738612
In 2.1060200000000004 3.647733641756207 6.8597738612
P 4.212082120400001 4.863669173899221 7.7195661388
P 8.4241221204 4.863669173899221 7.7195661388
P 6.3181021204 1.215935532143014 7.7195661388
In 6.31806 3.647733641756207 11.719553861200001
In 2.1060200000000004 3.647733641756207 11.719553861200001
P 4.212082120400001 4.863669173899221 12.5793461388
P 8.4241221204 4.863669173899221 12.5793461388
P 6.3181021204 1.215935532143014 12.5793461388
In 6.31806 3.647733641756207 16.579333861200002
In 2.1060200000000004 3.647733641756207 16.579333861200002
P 4.212082120400001 4.863669173899221 17.439126138800003
P 8.4241221204 4.863669173899221 17.439126138800003
P 6.3181021204 1.215935532143014 17.439126138800003
P 6.318102120400001 8.511402815655426 2.8597861387999997
P 8.4241221204 12.159136457411634 2.8597861387999997
P 10.5301421204 8.511402815655426 2.8597861387999997
In 4.21204 7.295467283512413 6.8597738612
In 10.5301 10.943200925268618 6.8597738612
In 8.42408 7.295467283512413 6.8597738612
In 6.31806 10.943200925268618 6.8597738612
P 6.318102120400001 8.511402815655426 7.7195661388
P 8.4241221204 12.159136457411634 7.7195661388
P 12.6361621204 12.159136457411634 7.7195661388
P 10.5301421204 8.511402815655426 7.7195661388
In 4.21204 7.295467283512413 11.719553861200001
In 10.5301 10.943200925268618 11.719553861200001
In 8.42408 7.295467283512413 11.719553861200001
In 6.31806 10.943200925268618 11.719553861200001
P 6.318102120400001 8.511402815655426 12.5793461388
P 8.4241221204 12.159136457411634 12.5793461388
P 12.6361621204 12.159136457411634 12.5793461388
P 10.5301421204 8.511402815655426 12.5793461388
In 4.21204 7.295467283512413 16.579333861200002
In 10.5301 10.943200925268618 16.579333861200002
In 8.42408 7.295467283512413 16.579333861200002
In 6.31806 10.943200925268618 16.579333861200002
P 6.318102120400001 8.511402815655426 17.439126138800003
P 8.4241221204 12.159136457411634 17.439126138800003
P 12.6361621204 12.159136457411634 17.439126138800003
P 10.5301421204 8.511402815655426 17.439126138800003
In 10.5301 10.943200925268618 21.439113861200003
In 8.42408 7.295467283512413 21.439113861200003
In 6.31806 10.943200925268618 21.439113861200003
In 8.42408 14.590934567024826 6.8597738612
In 12.63612 14.590934567024826 6.8597738612
In 10.530100000000001 18.238668208781032 6.8597738612
P 10.5301421204 15.80687009916784 7.7195661388
P 14.742182120399999 15.80687009916784 7.7195661388
In 8.42408 14.590934567024826 11.719553861200001
In 12.63612 14.590934567024826 11.719553861200001
In 10.530100000000001 18.238668208781032 11.719553861200001
P 10.5301421204 15.80687009916784 12.5793461388
P 14.742182120399999 15.80687009916784 12.5793461388
In 8.42408 14.590934567024826 16.579333861200002
In 12.63612 14.590934567024826 16.579333861200002
In 10.530100000000001 18.238668208781032 16.579333861200002
P 10.5301421204 15.80687009916784 17.439126138800003
P 14.742182120399999 15.80687009916784 17.439126138800003
