82

P 8.4241221204 4.863669173899221 2.8597861387999997
In 6.318060000000001 3.647733641756207 6.8597738612
P 4.212082120400001 4.863669173899221 7.7195661388
P 8.4241221204 4.863669173899221 7.7195661388
P 6.3181021204 1.215935532143014 7.7195661388
In 6.318060000000001 3.647733641756207 11.719553861200001
In 4.21204 0.0 11.719553861200001
In 2.1060200000000004 3.647733641756207 11.719553861200001
P 4.212082120400001 4.863669173899221 12.5793461388
P 8.4241221204 4.863669173899221 12.5793461388
P 6.3181021204 1.215935532143014 12.5793461388
In 6.318060000000001 3.647733641756207 16.579333861200002
P 4.212082120400001 4.863669173899221 17.439126138800003
P 8.4241221204 4.863669173899221 17.439126138800003
P 6.3181021204 1.215935532143014 17.439126138800003
P 10.5301421204 8.511402815655428 2.8597861387999997
In 4.21204 7.295467283512413 6.8597738612
In 10.530100000000001 10.94320092526862 6.8597738612
In 8.42408 7.295467283512413 6.8597738612
In 6.318060000000001 10.94320092526862 6.8597738612
P 6.318102120400001 8.511402815655428 7.7195661388
P 8.424122120400002 12.159136457411634 7.7195661388
P 12.636162120400002 12.159136457411634 7.7195661388
P 10.5301421204 8.511402815655428 7.7195661388
In 4.21204 7.295467283512413 11.719553861200001
In 10.530100000000001 10.94320092526862 11.719553861200001
In 8.42408 7.295467283512413 11.719553861200001
In 6.318060000000001 10.94320092526862 11.719553861200001
P 6.318102120400001 8.511402815655428 12.5793461388
P 8.424122120400002 12.159136457411634 12.5793461388
P 12.636162120400002 12.159136457411634 12.5793461388
P 10.5301421204 8.511402815655428 12.5793461388
In 4.21204 7.295467283512413 16.579333861200002
In 10.530100000000001 10.94320092526862 16.579333861200002
In 8.42408 7.295467283512413 16.579333861200002
In 6.318060000000001 10.94320092526862 16.579333861200002
P 6.318102120400001 8.511402815655428 17.439126138800003
P 8.424122120400002 12.159136457411634 17.439126138800003
P 12.636162120400002 12.159136457411634 17.439126138800003
P 10.5301421204 8.511402815655428 17.439126138800003
In 8.42408 7.295467283512413 21.439113861200003
P 12.636162120400002 4.863669173899221 2.8597861387999997
In 8.424079999999998 0.0 6.8597738612
In 14.742140000000001 3.647733641756207 6.8597738612
In 12.63612 0.0 6.8597738612
In 10.5301 3.647733641756207 6.8597738612
P 10.530142120399999 1.215935532143014 7.7195661388
P 12.636162120400002 4.863669173899221 7.7195661388
P 16.8482021204 4.863669173899221 7.7195661388
P 14.742182120399997 1.215935532143014 7.7195661388
In 8.424079999999998 0.0 11.719553861200001
In 14.742140000000001 3.647733641756207 11.719553861200001
In 12.63612 0.0 11.719553861200001
In 10.5301 3.647733641756207 11.719553861200001
P 10.530142120399999 1.215935532143014 12.5793461388
P 12.636162120400002 4.863669173899221 12.5793461388
P 16.8482021204 4.863669173899221 12.5793461388
P 14.742182120399997 1.215935532143014 12.5793461388
In 8.424079999999998 0.0 16.579333861200002
In 14.742140000000001 3.647733641756207 16.579333861200002
In 12.63612 0.0 16.579333861200002
In 10.5301 3.647733641756207 16.579333861200002
P 10.530142120399999 1.215935532143014 17.439126138800003
P 12.636162120400002 4.863669173899221 17.439126138800003
P 16.8482021204 4.863669173899221 17.439126138800003
P 14.742182120399997 1.215935532143014 17.439126138800003
In 10.5301 3.647733641756207 21.439113861200003
In 12.636119999999998 7.295467283512413 6.8597738612
In 16.84816 7.295467283512413 6.8597738612
In 14.742140000000004 10.94320092526862 6.8597738612
P 14.742182120400003 8.511402815655428 7.7195661388
In 12.636119999999998 7.295467283512413 11.719553861200001
In 16.84816 7.295467283512413 11.719553861200001
In 14.742140000000004 10.94320092526862 11.719553861200001
P 14.742182120400003 8.511402815655428 12.5793461388
P 16.848202120400003 12.159136457411634 12.5793461388
P 18.9542221204 8.511402815655428 12.5793461388
In 12.636119999999998 7.295467283512413 16.579333861200002
In 16.84816 7.295467283512413 16.579333861200002
In 14.742140000000004 10.94320092526862 16.579333861200002
P 14.742182120400003 8.511402815655428 17.439126138800003
In 12.636119999999998 7.295467283512413 21.439113861200003
