436

P 4.4675475 4.467547500000001 14.935047052
In 2.978365 2.978365 18.935112948
In 0.0 2.978365 21.913400792199997
P 1.4891824999999999 1.4891825 23.402587052
P 1.4891824999999999 4.467547500000001 20.424299207799997
P 4.4675475 4.467547500000001 23.402587052
P 4.4675475 1.4891825 20.424299207799997
In 2.978365 2.978365 27.402652948000004
P 1.4891824999999999 4.467547500000001 28.8918392078
P 4.4675475 4.467547500000001 31.870127052000004
P 4.4675475 1.4891825 28.8918392078
In 2.978365 8.935095000000002 10.467572947999999
In 2.978365 5.95673 13.445860792199998
In 0.0 8.935095000000002 13.445860792199998
P 1.4891824999999999 7.4459125 14.935047052
P 1.4891824999999999 10.424277500000002 11.9567592078
P 4.4675475 10.424277500000002 14.935047052
P 4.4675475 7.4459125 11.9567592078
In 0.0 5.95673 18.935112948
In 2.978365 8.935095000000002 18.935112948
In 2.978365 5.95673 21.913400792199997
In 0.0 8.935095000000002 21.913400792199997
P 1.4891824999999999 7.4459125 23.402587052
P 1.4891824999999999 10.424277500000002 20.424299207799997
P 4.4675475 10.424277500000002 23.402587052
P 4.4675475 7.4459125 20.424299207799997
In 0.0 5.95673 27.402652948000004
In 2.978365 8.935095000000002 27.402652948000004
In 2.978365 5.95673 30.3809407922
In 0.0 8.935095000000002 30.3809407922
P 1.4891824999999999 7.4459125 31.870127052000004
P 1.4891824999999999 10.424277500000002 28.8918392078
P 4.4675475 10.424277500000002 31.870127052000004
P 4.4675475 7.4459125 28.8918392078
P 4.4675475 16.381007500000003 6.467507052
In 0.0 11.91346 10.467572947999999
In 2.978365 14.891824999999999 10.467572947999999
In 2.978365 11.91346 13.445860792199998
In 0.0 14.891824999999999 13.445860792199998
P 1.4891824999999999 13.4026425 14.935047052
P 1.4891824999999999 16.381007500000003 11.9567592078
P 4.4675475 16.381007500000003 14.935047052
P 4.4675475 13.4026425 11.9567592078
In 0.0 11.91346 18.935112948
In 2.978365 14.891824999999999 18.935112948
In 2.978365 11.91346 21.913400792199997
In 0.0 14.891824999999999 21.913400792199997
P 1.4891824999999999 13.4026425 23.402587052
P 1.4891824999999999 16.381007500000003 20.424299207799997
P 4.4675475 16.381007500000003 23.402587052
P 4.4675475 13.4026425 20.424299207799997
In 0.0 11.91346 27.402652948000004
In 2.978365 14.891824999999999 27.402652948000004
In 2.978365 11.91346 30.3809407922
In 0.0 14.891824999999999 30.3809407922
P 1.4891824999999999 13.4026425 31.870127052000004
P 1.4891824999999999 16.381007500000003 28.8918392078
P 4.4675475 16.381007500000003 31.870127052000004
P 4.4675475 13.4026425 28.8918392078
In 0.0 17.870190000000008 10.467572947999999
In 2.978365 20.848555000000005 10.467572947999999
In 2.978365 17.870190000000008 13.445860792199998
In 0.0 20.848555000000005 13.445860792199998
P 1.4891824999999999 19.35937250000001 14.935047052
P 1.4891824999999999 22.337737500000003 11.9567592078
P 4.4675475 22.337737500000003 14.935047052
P 4.4675475 19.35937250000001 11.9567592078
In 0.0 17.870190000000008 18.935112948
In 2.978365 20.848555000000005 18.935112948
In 2.978365 17.870190000000008 21.913400792199997
In 0.0 20.848555000000005 21.913400792199997
P 1.4891824999999999 19.35937250000001 23.402587052
P 1.4891824999999999 22.337737500000003 20.424299207799997
P 4.4675475 22.337737500000003 23.402587052
P 4.4675475 19.35937250000001 20.424299207799997
In 0.0 17.870190000000008 27.402652948000004
In 2.978365 20.848555000000005 27.402652948000004
In 2.978365 17.870190000000008 30.3809407922
In 0.0 20.848555000000005 30.3809407922
P 1.4891824999999999 19.35937250000001 31.870127052000004
P 1.4891824999999999 22.337737500000003 28.8918392078
P 4.4675475 22.337737500000003 31.870127052000004
P 4.4675475 19.35937250000001 28.8918392078
In 2.978365 23.82692 13.445860792199998
P 1.4891824999999999 25.3161025 14.935047052
P 4.4675475 25.3161025 11.9567592078
In 0.0 23.82692 18.935112948
In 2.978365 26.805285 18.935112948
In 2.978365 23.82692 21.913400792199997
P 1.4891824999999999 25.3161025 23.402587052
P 4.4675475 28.294467500000003 23.402587052
P 4.4675475 25.3161025 20.424299207799997
In 0.0 23.82692 27.402652948000004
In 2.978365 26.805285 27.402652948000004
In 2.978365 23.82692 30.3809407922
P 4.4675475 25.3161025 28.8918392078
In 8.935095 2.978365 10.467572947999999
In 8.935095 0.0 13.445860792199998
In 5.95673 2.978365 13.445860792199998
P 7.4459125 1.4891825 14.935047052
P 7.4459125 4.467547500000001 11.9567592078
P 10.4242775 4.467547500000001 14.935047052
P 10.4242775 1.4891825 11.9567592078
In 5.95673 0.0 18.935112948
In 8.935095 2.978365 18.935112948
In 8.935095 0.0 21.913400792199997
In 5.95673 2.978365 21.913400792199997
P 7.4459125 1.4891825 23.402587052
P 7.4459125 4.467547500000001 20.424299207799997
P 10.4242775 4.467547500000001 23.402587052
P 10.4242775 1.4891825 20.424299207799997
In 5.95673 0.0 27.402652948000004
In 8.935095 2.978365 27.402652948000004
In 5.95673 2.978365 30.3809407922
P 7.4459125 4.467547500000001 28.8918392078
P 10.4242775 4.467547500000001 31.870127052000004
P 10.4242775 1.4891825 28.8918392078
P 10.4242775 10.424277500000002 6.467507052
In 5.95673 5.95673 10.467572947999999
In 8.935095 8.935095000000002 10.467572947999999
In 8.935095 5.95673 13.445860792199998
In 5.95673 8.935095000000002 13.445860792199998
P 7.4459125 7.4459125 14.935047052
P 7.4459125 10.424277500000002 11.9567592078
P 10.4242775 10.424277500000002 14.935047052
P 10.4242775 7.4459125 11.9567592078
In 5.95673 5.95673 18.935112948
In 8.935095 8.935095000000002 18.935112948
In 8.935095 5.95673 21.913400792199997
In 5.95673 8.935095000000002 21.913400792199997
P 7.4459125 7.4459125 23.402587052
P 7.4459125 10.424277500000002 20.424299207799997
P 10.4242775 10.424277500000002 23.402587052
P 10.4242775 7.4459125 20.424299207799997
In 5.95673 5.95673 27.402652948000004
In 8.935095 8.935095000000002 27.402652948000004
In 8.935095 5.95673 30.3809407922
In 5.95673 8.935095000000002 30.3809407922
P 7.4459125 7.4459125 31.870127052000004
P 7.4459125 10.424277500000002 28.8918392078
P 10.4242775 10.424277500000002 31.870127052000004
P 10.4242775 7.4459125 28.8918392078
In 8.935095 8.935095000000002 35.870192947999996
P 7.4459125 13.4026425 6.467507052
P 10.4242775 16.381007500000003 6.467507052
In 5.95673 11.91346 10.467572947999999
In 8.935095 14.891824999999999 10.467572947999999
In 8.935095 11.91346 13.445860792199998
In 5.95673 14.891824999999999 13.445860792199998
P 7.4459125 13.4026425 14.935047052
P 7.4459125 16.381007500000003 11.9567592078
P 10.4242775 16.381007500000003 14.935047052
P 10.4242775 13.4026425 11.9567592078
In 5.95673 11.91346 18.935112948
In 8.935095 14.891824999999999 18.935112948
In 8.935095 11.91346 21.913400792199997
In 5.95673 14.891824999999999 21.913400792199997
P 7.4459125 13.4026425 23.402587052
P 7.4459125 16.381007500000003 20.424299207799997
P 10.4242775 16.381007500000003 23.402587052
P 10.4242775 13.4026425 20.424299207799997
In 5.95673 11.91346 27.402652948000004
In 8.935095 14.891824999999999 27.402652948000004
In 8.935095 11.91346 30.3809407922
In 5.95673 14.891824999999999 30.3809407922
P 7.4459125 13.4026425 31.870127052000004
P 7.4459125 16.381007500000003 28.8918392078
P 10.4242775 16.381007500000003 31.870127052000004
P 10.4242775 13.4026425 28.8918392078
In 5.95673 11.91346 35.870192947999996
In 8.935095 14.891824999999999 35.870192947999996
P 10.4242775 13.4026425 37.359379207799996
P 7.4459125 19.35937250000001 6.467507052
In 5.95673 17.870190000000008 10.467572947999999
In 8.935095 20.848555000000005 10.467572947999999
In 8.935095 17.870190000000008 13.445860792199998
In 5.95673 20.848555000000005 13.445860792199998
P 7.4459125 19.35937250000001 14.935047052
P 7.4459125 22.337737500000003 11.9567592078
P 10.4242775 22.337737500000003 14.935047052
P 10.4242775 19.35937250000001 11.9567592078
In 5.95673 17.870190000000008 18.935112948
In 8.935095 20.848555000000005 18.935112948
In 8.935095 17.870190000000008 21.913400792199997
In 5.95673 20.848555000000005 21.913400792199997
P 7.4459125 19.35937250000001 23.402587052
P 7.4459125 22.337737500000003 20.424299207799997
P 10.4242775 22.337737500000003 23.402587052
P 10.4242775 19.35937250000001 20.424299207799997
In 5.95673 17.870190000000008 27.402652948000004
In 8.935095 20.848555000000005 27.402652948000004
In 8.935095 17.870190000000008 30.3809407922
In 5.95673 20.848555000000005 30.3809407922
P 7.4459125 19.35937250000001 31.870127052000004
P 7.4459125 22.337737500000003 28.8918392078
P 10.4242775 22.337737500000003 31.870127052000004
P 10.4242775 19.35937250000001 28.8918392078
In 5.95673 17.870190000000008 35.870192947999996
In 8.935095 20.848555000000005 35.870192947999996
In 5.95673 23.82692 10.467572947999999
In 8.935095 23.82692 13.445860792199998
In 5.95673 26.805285 13.445860792199998
P 7.4459125 25.3161025 14.935047052
P 10.4242775 28.294467500000003 14.935047052
P 10.4242775 25.3161025 11.9567592078
In 5.95673 23.82692 18.935112948
In 8.935095 26.805285 18.935112948
In 8.935095 23.82692 21.913400792199997
In 5.95673 26.805285 21.913400792199997
P 7.4459125 25.3161025 23.402587052
P 7.4459125 28.294467500000003 20.424299207799997
P 10.4242775 28.294467500000003 23.402587052
P 10.4242775 25.3161025 20.424299207799997
In 5.95673 23.82692 27.402652948000004
In 8.935095 26.805285 27.402652948000004
In 8.935095 23.82692 30.3809407922
P 7.4459125 25.3161025 31.870127052000004
P 10.4242775 25.3161025 28.8918392078
In 14.891825 2.978365 10.467572947999999
In 11.913459999999999 2.978365 13.445860792199998
P 13.4026425 1.4891825 14.935047052
P 13.4026425 4.467547500000001 11.9567592078
P 16.381007500000003 4.467547500000001 14.935047052
In 11.913459999999999 0.0 18.935112948
In 14.891825 2.978365 18.935112948
In 14.891825 0.0 21.913400792199997
In 11.913459999999999 2.978365 21.913400792199997
P 13.4026425 1.4891825 23.402587052
P 13.4026425 4.467547500000001 20.424299207799997
P 16.381007500000003 4.467547500000001 23.402587052
P 16.381007500000003 1.4891825 20.424299207799997
In 11.913459999999999 0.0 27.402652948000004
In 14.891825 2.978365 27.402652948000004
In 11.913459999999999 2.978365 30.3809407922
P 13.4026425 4.467547500000001 28.8918392078
P 16.381007500000003 4.467547500000001 31.870127052000004
P 16.381007500000003 1.4891825 28.8918392078
P 13.4026425 7.4459125 6.467507052
P 16.381007500000003 10.424277500000002 6.467507052
In 11.913459999999999 5.95673 10.467572947999999
In 14.891825 8.935095000000002 10.467572947999999
In 14.891825 5.95673 13.445860792199998
In 11.913459999999999 8.935095000000002 13.445860792199998
P 13.4026425 7.4459125 14.935047052
P 13.4026425 10.424277500000002 11.9567592078
P 16.381007500000003 10.424277500000002 14.935047052
P 16.381007500000003 7.4459125 11.9567592078
In 11.913459999999999 5.95673 18.935112948
In 14.891825 8.935095000000002 18.935112948
In 14.891825 5.95673 21.913400792199997
In 11.913459999999999 8.935095000000002 21.913400792199997
P 13.4026425 7.4459125 23.402587052
P 13.4026425 10.424277500000002 20.424299207799997
P 16.381007500000003 10.424277500000002 23.402587052
P 16.381007500000003 7.4459125 20.424299207799997
In 11.913459999999999 5.95673 27.402652948000004
In 14.891825 8.935095000000002 27.402652948000004
In 14.891825 5.95673 30.3809407922
In 11.913459999999999 8.935095000000002 30.3809407922
P 13.4026425 7.4459125 31.870127052000004
P 13.4026425 10.424277500000002 28.8918392078
P 16.381007500000003 10.424277500000002 31.870127052000004
P 16.381007500000003 7.4459125 28.8918392078
In 14.891825 8.935095000000002 35.870192947999996
In 11.913459999999999 14.891824999999999 4.978320792199999
P 13.4026425 13.4026425 6.467507052
P 16.381007500000003 16.381007500000003 6.467507052
In 11.913459999999999 11.91346 10.467572947999999
In 14.891825 14.891824999999999 10.467572947999999
In 14.891825 11.91346 13.445860792199998
In 11.913459999999999 14.891824999999999 13.445860792199998
P 13.4026425 13.4026425 14.935047052
P 13.4026425 16.381007500000003 11.9567592078
P 16.381007500000003 16.381007500000003 14.935047052
P 16.381007500000003 13.4026425 11.9567592078
In 11.913459999999999 11.91346 18.935112948
In 14.891825 14.891824999999999 18.935112948
In 14.891825 11.91346 21.913400792199997
In 11.913459999999999 14.891824999999999 21.913400792199997
P 13.4026425 13.4026425 23.402587052
P 13.4026425 16.381007500000003 20.424299207799997
P 16.381007500000003 16.381007500000003 23.402587052
P 16.381007500000003 13.4026425 20.424299207799997
In 11.913459999999999 11.91346 27.402652948000004
In 14.891825 14.891824999999999 27.402652948000004
In 14.891825 11.91346 30.3809407922
In 11.913459999999999 14.891824999999999 30.3809407922
P 13.4026425 13.4026425 31.870127052000004
P 13.4026425 16.381007500000003 28.8918392078
P 16.381007500000003 16.381007500000003 31.870127052000004
P 16.381007500000003 13.4026425 28.8918392078
In 11.913459999999999 11.91346 35.870192947999996
In 14.891825 14.891824999999999 35.870192947999996
P 13.4026425 19.35937250000001 6.467507052
In 11.913459999999999 17.870190000000008 10.467572947999999
In 14.891825 20.848555000000005 10.467572947999999
In 14.891825 17.870190000000008 13.445860792199998
In 11.913459999999999 20.848555000000005 13.445860792199998
P 13.4026425 19.35937250000001 14.935047052
P 13.4026425 22.337737500000003 11.9567592078
P 16.381007500000003 22.337737500000003 14.935047052
P 16.381007500000003 19.35937250000001 11.9567592078
In 11.913459999999999 17.870190000000008 18.935112948
In 14.891825 20.848555000000005 18.935112948
In 14.891825 17.870190000000008 21.913400792199997
In 11.913459999999999 20.848555000000005 21.913400792199997
P 13.4026425 19.35937250000001 23.402587052
P 13.4026425 22.337737500000003 20.424299207799997
P 16.381007500000003 22.337737500000003 23.402587052
P 16.381007500000003 19.35937250000001 20.424299207799997
In 11.913459999999999 17.870190000000008 27.402652948000004
In 14.891825 20.848555000000005 27.402652948000004
In 14.891825 17.870190000000008 30.3809407922
In 11.913459999999999 20.848555000000005 30.3809407922
P 13.4026425 19.35937250000001 31.870127052000004
P 13.4026425 22.337737500000003 28.8918392078
P 16.381007500000003 22.337737500000003 31.870127052000004
P 16.381007500000003 19.35937250000001 28.8918392078
In 11.913459999999999 17.870190000000008 35.870192947999996
In 11.913459999999999 23.82692 10.467572947999999
In 14.891825 23.82692 13.445860792199998
In 11.913459999999999 26.805285 13.445860792199998
P 13.4026425 25.3161025 14.935047052
P 16.381007500000003 28.294467500000003 14.935047052
P 16.381007500000003 25.3161025 11.9567592078
In 11.913459999999999 23.82692 18.935112948
In 14.891825 26.805285 18.935112948
In 14.891825 23.82692 21.913400792199997
In 11.913459999999999 26.805285 21.913400792199997
P 13.4026425 25.3161025 23.402587052
P 13.4026425 28.294467500000003 20.424299207799997
P 16.381007500000003 28.294467500000003 23.402587052
P 16.381007500000003 25.3161025 20.424299207799997
In 11.913459999999999 23.82692 27.402652948000004
In 14.891825 26.805285 27.402652948000004
In 14.891825 23.82692 30.3809407922
In 11.913459999999999 26.805285 30.3809407922
P 13.4026425 25.3161025 31.870127052000004
P 13.4026425 28.294467500000003 28.8918392078
P 16.381007500000003 25.3161025 28.8918392078
In 17.87019 2.978365 13.445860792199998
P 19.3593725 1.4891825 14.935047052
P 19.3593725 4.467547500000001 11.9567592078
P 22.337737500000003 4.467547500000001 14.935047052
In 17.87019 0.0 18.935112948
In 20.848555 2.978365 18.935112948
In 17.87019 2.978365 21.913400792199997
P 19.3593725 1.4891825 23.402587052
P 19.3593725 4.467547500000001 20.424299207799997
P 22.337737500000003 4.467547500000001 23.402587052
In 20.848555 2.978365 27.402652948000004
In 17.87019 2.978365 30.3809407922
P 19.3593725 4.467547500000001 28.8918392078
In 17.87019 5.95673 10.467572947999999
In 20.848555 8.935095000000002 10.467572947999999
In 20.848555 5.95673 13.445860792199998
In 17.87019 8.935095000000002 13.445860792199998
P 19.3593725 7.4459125 14.935047052
P 19.3593725 10.424277500000002 11.9567592078
P 22.337737500000003 10.424277500000002 14.935047052
P 22.337737500000003 7.4459125 11.9567592078
In 17.87019 5.95673 18.935112948
In 20.848555 8.935095000000002 18.935112948
In 20.848555 5.95673 21.913400792199997
In 17.87019 8.935095000000002 21.913400792199997
P 19.3593725 7.4459125 23.402587052
P 19.3593725 10.424277500000002 20.424299207799997
P 22.337737500000003 10.424277500000002 23.402587052
P 22.337737500000003 7.4459125 20.424299207799997
In 17.87019 5.95673 27.402652948000004
In 20.848555 8.935095000000002 27.402652948000004
In 20.848555 5.95673 30.3809407922
In 17.87019 8.935095000000002 30.3809407922
P 19.3593725 7.4459125 31.870127052000004
P 19.3593725 10.424277500000002 28.8918392078
P 22.337737500000003 10.424277500000002 31.870127052000004
P 22.337737500000003 7.4459125 28.8918392078
In 17.87019 11.91346 10.467572947999999
In 20.848555 14.891824999999999 10.467572947999999
In 20.848555 11.91346 13.445860792199998
In 17.87019 14.891824999999999 13.445860792199998
P 19.3593725 13.4026425 14.935047052
P 19.3593725 16.381007500000003 11.9567592078
P 22.337737500000003 16.381007500000003 14.935047052
P 22.337737500000003 13.4026425 11.9567592078
In 17.87019 11.91346 18.935112948
In 20.848555 14.891824999999999 18.935112948
In 20.848555 11.91346 21.913400792199997
In 17.87019 14.891824999999999 21.913400792199997
P 19.3593725 13.4026425 23.402587052
P 19.3593725 16.381007500000003 20.424299207799997
P 22.337737500000003 16.381007500000003 23.402587052
P 22.337737500000003 13.4026425 20.424299207799997
In 17.87019 11.91346 27.402652948000004
In 20.848555 14.891824999999999 27.402652948000004
In 20.848555 11.91346 30.3809407922
In 17.87019 14.891824999999999 30.3809407922
P 19.3593725 13.4026425 31.870127052000004
P 19.3593725 16.381007500000003 28.8918392078
P 22.337737500000003 16.381007500000003 31.870127052000004
P 22.337737500000003 13.4026425 28.8918392078
In 17.87019 11.91346 35.870192947999996
In 17.87019 17.870190000000008 10.467572947999999
In 20.848555 20.848555000000005 10.467572947999999
In 20.848555 17.870190000000008 13.445860792199998
In 17.87019 20.848555000000005 13.445860792199998
P 19.3593725 19.35937250000001 14.935047052
P 19.3593725 22.337737500000003 11.9567592078
P 22.337737500000003 22.337737500000003 14.935047052
P 22.337737500000003 19.35937250000001 11.9567592078
In 17.87019 17.870190000000008 18.935112948
In 20.848555 20.848555000000005 18.935112948
In 20.848555 17.870190000000008 21.913400792199997
In 17.87019 20.848555000000005 21.913400792199997
P 19.3593725 19.35937250000001 23.402587052
P 19.3593725 22.337737500000003 20.424299207799997
P 22.337737500000003 22.337737500000003 23.402587052
P 22.337737500000003 19.35937250000001 20.424299207799997
In 17.87019 17.870190000000008 27.402652948000004
In 20.848555 20.848555000000005 27.402652948000004
In 20.848555 17.870190000000008 30.3809407922
In 17.87019 20.848555000000005 30.3809407922
P 19.3593725 19.35937250000001 31.870127052000004
P 19.3593725 22.337737500000003 28.8918392078
P 22.337737500000003 19.35937250000001 28.8918392078
In 17.87019 23.82692 10.467572947999999
In 20.848555 23.82692 13.445860792199998
In 17.87019 26.805285 13.445860792199998
P 19.3593725 25.3161025 14.935047052
In 17.87019 23.82692 18.935112948
In 20.848555 26.805285 18.935112948
In 20.848555 23.82692 21.913400792199997
In 17.87019 26.805285 21.913400792199997
P 19.3593725 25.3161025 23.402587052
P 22.337737500000003 25.3161025 20.424299207799997
In 17.87019 23.82692 27.402652948000004
