16

In 2.978365 2.978365 2.000032948
P 1.4891825 4.4675475 3.4892192077999997
P 4.4675475 4.4675475 6.467507052
P 4.4675475 1.4891825 3.4892192077999997
In 2.978365 8.935095 2.000032948
In 2.978365 5.956729999999999 4.978320792199999
P 1.4891825 7.4459125 6.467507052
P 4.4675475 7.4459125 3.4892192077999997
In 8.935095 2.978365 2.000032948
In 5.956729999999999 2.978365 4.978320792199999
P 7.4459125 1.4891825 6.467507052
P 7.4459125 4.4675475 3.4892192077999997
In 5.956729999999999 5.956729999999999 2.000032948
In 8.935095 5.956729999999999 4.978320792199999
In 5.956729999999999 8.935095 4.978320792199999
P 7.4459125 7.4459125 6.467507052
