24

In 0.0 0.0 6.8597738612
In 6.318059999999999 3.6477336417562065 6.8597738612
In 4.212039999999999 0.0 6.8597738612
In 2.10602 3.6477336417562065 6.8597738612
P 2.1060621204000003 1.215935532143014 7.7195661388
P 4.212082120400001 4.863669173899221 7.7195661388
P 8.4241221204 4.863669173899221 7.7195661388
P 6.3181021204 1.215935532143014 7.7195661388
In 0.0 0.0 11.719553861200001
In 6.318059999999999 3.6477336417562065 11.719553861200001
In 4.212039999999999 0.0 11.719553861200001
In 2.10602 3.6477336417562065 11.719553861200001
P 2.1060621204000003 1.215935532143014 12.5793461388
P 4.212082120400001 4.863669173899221 12.5793461388
P 8.4241221204 4.863669173899221 12.5793461388
P 6.3181021204 1.215935532143014 12.5793461388
In 0.0 0.0 16.579333861200002
In 6.318059999999999 3.6477336417562065 16.579333861200002
In 4.212039999999999 0.0 16.579333861200002
In 2.10602 3.6477336417562065 16.579333861200002
P 2.1060621204000003 1.215935532143014 17.439126138800003
P 4.212082120400001 4.863669173899221 17.439126138800003
P 8.4241221204 4.863669173899221 17.439126138800003
P 6.3181021204 1.215935532143014 17.439126138800003
