10

In 2.978365 2.10602 4.105993149
In 2.978365 6.31806 4.105993149
P 1.4891825 2.10602 2.000026851
P 4.4675475 4.212039999999999 4.105993149
P 4.4675475 0.0 4.105993149
In 5.956729999999999 0.0 2.000026851
In 8.935095 2.10602 4.105993149
In 5.956729999999999 4.212039999999999 2.000026851
P 7.4459125 2.10602 2.000026851
P 7.4459125 6.31806 2.000026851
