166

In 2.978365 2.978365 10.467572947999999
In 2.978365 0.0 13.445860792199998
P 4.467547500000001 4.4675475 14.935047052
P 4.467547500000001 1.4891825 11.9567592078
In 2.978365 2.978365 18.935112948
In 2.978365 0.0 21.913400792199997
P 1.4891825 4.4675475 20.424299207799997
P 4.467547500000001 4.4675475 23.402587052
P 4.467547500000001 1.4891825 20.424299207799997
In 2.978365 5.956729999999999 13.445860792199998
P 1.4891825 7.4459125 14.935047052
P 4.467547500000001 10.4242775 14.935047052
P 4.467547500000001 7.4459125 11.9567592078
In 2.978365 8.935095 18.935112948
In 2.978365 5.956729999999999 21.913400792199997
P 4.467547500000001 10.4242775 23.402587052
P 4.467547500000001 7.4459125 20.424299207799997
P 7.4459125 1.4891825 6.467507052
P 10.424277500000002 4.4675475 6.467507052
In 5.95673 0.0 10.467572947999999
In 8.935095000000002 2.978365 10.467572947999999
In 8.935095000000002 0.0 13.445860792199998
In 5.95673 2.978365 13.445860792199998
P 7.4459125 1.4891825 14.935047052
P 7.4459125 4.4675475 11.9567592078
P 10.424277500000002 4.4675475 14.935047052
P 10.424277500000002 1.4891825 11.9567592078
In 5.95673 0.0 18.935112948
In 8.935095000000002 2.978365 18.935112948
In 8.935095000000002 0.0 21.913400792199997
In 5.95673 2.978365 21.913400792199997
P 7.4459125 1.4891825 23.402587052
P 7.4459125 4.4675475 20.424299207799997
P 10.424277500000002 4.4675475 23.402587052
P 10.424277500000002 1.4891825 20.424299207799997
In 8.935095000000002 2.978365 27.402652948
P 10.424277500000002 1.4891825 28.891839207799997
In 8.935095000000002 5.956729999999999 4.978320792199999
P 7.4459125 7.4459125 6.467507052
P 10.424277500000002 10.4242775 6.467507052
In 5.95673 5.956729999999999 10.467572947999999
In 8.935095000000002 8.935095 10.467572947999999
In 8.935095000000002 5.956729999999999 13.445860792199998
In 5.95673 8.935095 13.445860792199998
P 7.4459125 7.4459125 14.935047052
P 7.4459125 10.4242775 11.9567592078
P 10.424277500000002 10.4242775 14.935047052
P 10.424277500000002 7.4459125 11.9567592078
In 5.95673 5.956729999999999 18.935112948
In 8.935095000000002 8.935095 18.935112948
In 8.935095000000002 5.956729999999999 21.913400792199997
In 5.95673 8.935095 21.913400792199997
P 7.4459125 7.4459125 23.402587052
P 7.4459125 10.4242775 20.424299207799997
P 10.424277500000002 10.4242775 23.402587052
P 10.424277500000002 7.4459125 20.424299207799997
In 5.95673 5.956729999999999 27.402652948
In 8.935095000000002 8.935095 27.402652948
P 10.424277500000002 7.4459125 28.891839207799997
In 14.891824999999999 0.0 4.978320792199999
In 11.91346 2.978365 4.978320792199999
P 13.4026425 1.4891825 6.467507052
P 16.381007500000003 4.4675475 6.467507052
In 11.91346 0.0 10.467572947999999
In 14.891824999999999 2.978365 10.467572947999999
In 14.891824999999999 0.0 13.445860792199998
In 11.91346 2.978365 13.445860792199998
P 13.4026425 1.4891825 14.935047052
P 13.4026425 4.4675475 11.9567592078
P 16.381007500000003 4.4675475 14.935047052
P 16.381007500000003 1.4891825 11.9567592078
In 11.91346 0.0 18.935112948
In 14.891824999999999 2.978365 18.935112948
In 14.891824999999999 0.0 21.913400792199997
In 11.91346 2.978365 21.913400792199997
P 13.4026425 1.4891825 23.402587052
P 13.4026425 4.4675475 20.424299207799997
P 16.381007500000003 4.4675475 23.402587052
P 16.381007500000003 1.4891825 20.424299207799997
In 11.91346 0.0 27.402652948
In 14.891824999999999 2.978365 27.402652948
P 13.4026425 4.4675475 28.891839207799997
P 16.381007500000003 1.4891825 28.891839207799997
In 14.891824999999999 5.956729999999999 4.978320792199999
In 11.91346 8.935095 4.978320792199999
P 13.4026425 7.4459125 6.467507052
P 16.381007500000003 10.4242775 6.467507052
In 11.91346 5.956729999999999 10.467572947999999
In 14.891824999999999 8.935095 10.467572947999999
In 14.891824999999999 5.956729999999999 13.445860792199998
In 11.91346 8.935095 13.445860792199998
P 13.4026425 7.4459125 14.935047052
P 13.4026425 10.4242775 11.9567592078
P 16.381007500000003 10.4242775 14.935047052
P 16.381007500000003 7.4459125 11.9567592078
In 11.91346 5.956729999999999 18.935112948
In 14.891824999999999 8.935095 18.935112948
In 14.891824999999999 5.956729999999999 21.913400792199997
In 11.91346 8.935095 21.913400792199997
P 13.4026425 7.4459125 23.402587052
P 13.4026425 10.4242775 20.424299207799997
P 16.381007500000003 10.4242775 23.402587052
P 16.381007500000003 7.4459125 20.424299207799997
In 11.91346 5.956729999999999 27.402652948
In 14.891824999999999 8.935095 27.402652948
P 13.4026425 10.4242775 28.891839207799997
P 16.381007500000003 7.4459125 28.891839207799997
In 17.870190000000008 2.978365 4.978320792199999
P 19.35937250000001 1.4891825 6.467507052
P 22.337737500000003 4.4675475 6.467507052
In 17.870190000000008 0.0 10.467572947999999
In 20.848555000000005 2.978365 10.467572947999999
In 20.848555000000005 0.0 13.445860792199998
In 17.870190000000008 2.978365 13.445860792199998
P 19.35937250000001 1.4891825 14.935047052
P 19.35937250000001 4.4675475 11.9567592078
P 22.337737500000003 4.4675475 14.935047052
P 22.337737500000003 1.4891825 11.9567592078
In 17.870190000000008 0.0 18.935112948
In 20.848555000000005 2.978365 18.935112948
In 20.848555000000005 0.0 21.913400792199997
In 17.870190000000008 2.978365 21.913400792199997
P 19.35937250000001 1.4891825 23.402587052
P 19.35937250000001 4.4675475 20.424299207799997
P 22.337737500000003 4.4675475 23.402587052
P 22.337737500000003 1.4891825 20.424299207799997
In 17.870190000000008 0.0 27.402652948
In 20.848555000000005 2.978365 27.402652948
P 19.35937250000001 4.4675475 28.891839207799997
In 17.870190000000008 8.935095 4.978320792199999
P 19.35937250000001 7.4459125 6.467507052
In 17.870190000000008 5.956729999999999 10.467572947999999
In 20.848555000000005 8.935095 10.467572947999999
In 20.848555000000005 5.956729999999999 13.445860792199998
In 17.870190000000008 8.935095 13.445860792199998
P 19.35937250000001 7.4459125 14.935047052
P 19.35937250000001 10.4242775 11.9567592078
P 22.337737500000003 10.4242775 14.935047052
P 22.337737500000003 7.4459125 11.9567592078
In 17.870190000000008 5.956729999999999 18.935112948
In 20.848555000000005 8.935095 18.935112948
In 20.848555000000005 5.956729999999999 21.913400792199997
In 17.870190000000008 8.935095 21.913400792199997
P 19.35937250000001 7.4459125 23.402587052
P 19.35937250000001 10.4242775 20.424299207799997
P 22.337737500000003 10.4242775 23.402587052
P 22.337737500000003 7.4459125 20.424299207799997
In 17.870190000000008 5.956729999999999 27.402652948
In 20.848555000000005 8.935095 27.402652948
In 23.82692 0.0 10.467572947999999
In 23.82692 2.978365 13.445860792199998
P 25.3161025 1.4891825 14.935047052
P 25.3161025 4.4675475 11.9567592078
In 23.82692 0.0 18.935112948
In 26.805285 2.978365 18.935112948
In 23.82692 2.978365 21.913400792199997
P 25.3161025 4.4675475 20.424299207799997
In 23.82692 5.956729999999999 10.467572947999999
In 26.805285 5.956729999999999 13.445860792199998
In 23.82692 8.935095 13.445860792199998
P 25.3161025 7.4459125 14.935047052
P 25.3161025 10.4242775 11.9567592078
In 23.82692 5.956729999999999 18.935112948
In 23.82692 8.935095 21.913400792199997
P 25.3161025 7.4459125 23.402587052
P 25.3161025 10.4242775 20.424299207799997
