132

P 8.4241221204 4.863669173899221 2.8597861387999997
P 8.4241221204 4.863669173899221 7.719566138799999
In 10.530100000000001 10.943200925268618 1.9999938612000001
In 8.424080000000002 7.295467283512413 1.9999938612000001
P 8.4241221204 12.159136457411634 2.8597861387999997
P 12.6361621204 12.159136457411634 2.8597861387999997
P 10.530142120400003 8.511402815655426 2.8597861387999997
In 10.530100000000001 10.943200925268618 6.859773861199999
In 8.424080000000002 7.295467283512413 6.859773861199999
In 6.31806 10.943200925268618 6.859773861199999
P 6.318102120400001 8.511402815655426 7.719566138799999
P 8.4241221204 12.159136457411634 7.719566138799999
P 12.6361621204 12.159136457411634 7.719566138799999
P 10.530142120400003 8.511402815655426 7.719566138799999
In 10.530100000000001 10.943200925268618 11.719553861199998
In 8.424080000000002 7.295467283512413 11.719553861199998
P 8.4241221204 12.159136457411634 12.579346138799998
P 12.6361621204 12.159136457411634 12.579346138799998
P 10.530142120400003 8.511402815655426 12.579346138799998
In 14.742140000000001 18.238668208781032 1.9999938612000001
In 12.636120000000002 14.590934567024826 1.9999938612000001
P 10.5301421204 15.80687009916784 2.8597861387999997
P 16.8482021204 19.454603740924046 2.8597861387999997
P 14.742182120399999 15.80687009916784 2.8597861387999997
In 8.42408 14.590934567024826 6.859773861199999
In 14.742140000000001 18.238668208781032 6.859773861199999
In 12.636120000000002 14.590934567024826 6.859773861199999
In 10.530100000000001 18.238668208781032 6.859773861199999
P 10.5301421204 15.80687009916784 7.719566138799999
P 12.636162120400002 19.454603740924046 7.719566138799999
P 16.8482021204 19.454603740924046 7.719566138799999
P 14.742182120399999 15.80687009916784 7.719566138799999
In 8.42408 14.590934567024826 11.719553861199998
In 14.742140000000001 18.238668208781032 11.719553861199998
In 12.636120000000002 14.590934567024826 11.719553861199998
P 10.5301421204 15.80687009916784 12.579346138799998
P 14.742182120399999 15.80687009916784 12.579346138799998
In 14.74214 3.647733641756207 1.9999938612000001
In 10.530100000000003 3.647733641756207 1.9999938612000001
P 12.636162120400002 4.863669173899221 2.8597861387999997
P 16.848202120400003 4.863669173899221 2.8597861387999997
P 14.742182120399999 1.215935532143014 2.8597861387999997
In 14.74214 3.647733641756207 6.859773861199999
In 12.636119999999998 0.0 6.859773861199999
In 10.530100000000003 3.647733641756207 6.859773861199999
P 10.5301421204 1.215935532143014 7.719566138799999
P 12.636162120400002 4.863669173899221 7.719566138799999
P 16.848202120400003 4.863669173899221 7.719566138799999
P 14.742182120399999 1.215935532143014 7.719566138799999
In 14.74214 3.647733641756207 11.719553861199998
In 10.530100000000003 3.647733641756207 11.719553861199998
P 12.636162120400002 4.863669173899221 12.579346138799998
P 16.848202120400003 4.863669173899221 12.579346138799998
P 14.742182120399999 1.215935532143014 12.579346138799998
In 12.636120000000002 7.295467283512413 1.9999938612000001
In 18.954179999999997 10.943200925268618 1.9999938612000001
In 16.84816 7.295467283512413 1.9999938612000001
In 14.742140000000003 10.943200925268618 1.9999938612000001
P 14.742182120400003 8.511402815655426 2.8597861387999997
P 16.8482021204 12.159136457411634 2.8597861387999997
P 21.060242120399998 12.159136457411634 2.8597861387999997
P 18.9542221204 8.511402815655426 2.8597861387999997
In 12.636120000000002 7.295467283512413 6.859773861199999
In 18.954179999999997 10.943200925268618 6.859773861199999
In 16.84816 7.295467283512413 6.859773861199999
In 14.742140000000003 10.943200925268618 6.859773861199999
P 14.742182120400003 8.511402815655426 7.719566138799999
P 16.8482021204 12.159136457411634 7.719566138799999
P 21.060242120399998 12.159136457411634 7.719566138799999
P 18.9542221204 8.511402815655426 7.719566138799999
In 12.636120000000002 7.295467283512413 11.719553861199998
In 18.954179999999997 10.943200925268618 11.719553861199998
In 16.84816 7.295467283512413 11.719553861199998
In 14.742140000000003 10.943200925268618 11.719553861199998
P 14.742182120400003 8.511402815655426 12.579346138799998
P 16.8482021204 12.159136457411634 12.579346138799998
P 21.060242120399998 12.159136457411634 12.579346138799998
P 18.9542221204 8.511402815655426 12.579346138799998
In 16.848160000000004 14.590934567024826 1.9999938612000001
In 21.060200000000005 14.590934567024826 1.9999938612000001
In 18.95418 18.238668208781032 1.9999938612000001
P 18.9542221204 15.80687009916784 2.8597861387999997
P 23.1662621204 15.80687009916784 2.8597861387999997
In 16.848160000000004 14.590934567024826 6.859773861199999
In 23.166220000000003 18.238668208781032 6.859773861199999
In 21.060200000000005 14.590934567024826 6.859773861199999
In 18.95418 18.238668208781032 6.859773861199999
P 18.9542221204 15.80687009916784 7.719566138799999
P 21.0602421204 19.454603740924046 7.719566138799999
P 23.1662621204 15.80687009916784 7.719566138799999
In 16.848160000000004 14.590934567024826 11.719553861199998
In 21.060200000000005 14.590934567024826 11.719553861199998
In 18.95418 18.238668208781032 11.719553861199998
P 18.9542221204 15.80687009916784 12.579346138799998
P 23.1662621204 15.80687009916784 12.579346138799998
In 23.166220000000006 3.647733641756207 1.9999938612000001
In 18.954180000000004 3.647733641756207 1.9999938612000001
P 18.9542221204 1.215935532143014 2.8597861387999997
P 21.0602421204 4.863669173899221 2.8597861387999997
P 25.272282120400003 4.863669173899221 2.8597861387999997
In 16.848160000000004 0.0 6.859773861199999
In 23.166220000000006 3.647733641756207 6.859773861199999
In 21.060200000000005 0.0 6.859773861199999
In 18.954180000000004 3.647733641756207 6.859773861199999
P 18.9542221204 1.215935532143014 7.719566138799999
P 21.0602421204 4.863669173899221 7.719566138799999
P 25.272282120400003 4.863669173899221 7.719566138799999
P 23.166262120400003 1.215935532143014 7.719566138799999
In 16.848160000000004 0.0 11.719553861199998
In 23.166220000000006 3.647733641756207 11.719553861199998
In 18.954180000000004 3.647733641756207 11.719553861199998
P 18.9542221204 1.215935532143014 12.579346138799998
P 21.0602421204 4.863669173899221 12.579346138799998
In 21.060200000000005 7.295467283512413 1.9999938612000001
In 25.272240000000007 7.295467283512413 1.9999938612000001
In 23.166220000000003 10.943200925268618 1.9999938612000001
P 23.166262120400003 8.511402815655426 2.8597861387999997
P 25.272282120400003 12.159136457411634 2.8597861387999997
In 21.060200000000005 7.295467283512413 6.859773861199999
In 27.378260000000004 10.943200925268618 6.859773861199999
In 25.272240000000007 7.295467283512413 6.859773861199999
In 23.166220000000003 10.943200925268618 6.859773861199999
P 23.166262120400003 8.511402815655426 7.719566138799999
P 25.272282120400003 12.159136457411634 7.719566138799999
P 27.378302120400004 8.511402815655426 7.719566138799999
In 21.060200000000005 7.295467283512413 11.719553861199998
In 25.272240000000007 7.295467283512413 11.719553861199998
In 23.166220000000003 10.943200925268618 11.719553861199998
P 23.166262120400003 8.511402815655426 12.579346138799998
P 25.272282120400003 12.159136457411634 12.579346138799998
In 25.272240000000004 14.590934567024826 6.859773861199999
In 25.272240000000004 14.590934567024826 11.719553861199998
