62

P 1.4891825 4.467547500000001 11.956759207799998
P 4.4675475 4.467547500000001 14.935047051999998
In 0.0 8.935095000000002 4.978320792199999
P 1.4891825 7.4459125 6.467507051999999
P 1.4891825 10.424277500000002 3.4892192077999997
P 4.4675475 10.424277500000002 6.467507051999999
In 0.0 5.95673 10.467572947999999
In 2.9783649999999997 8.935095000000002 10.467572947999999
In 2.9783649999999997 5.95673 13.445860792199998
In 0.0 8.935095000000002 13.445860792199998
P 1.4891825 7.4459125 14.935047051999998
P 1.4891825 10.424277500000002 11.956759207799998
P 4.4675475 10.424277500000002 14.935047051999998
P 4.4675475 7.4459125 11.956759207799998
In 0.0 5.95673 18.935112948
In 2.9783649999999997 8.935095000000002 18.935112948
In 0.0 8.935095000000002 21.913400792199997
P 1.4891825 10.424277500000002 20.424299207799997
P 4.4675475 7.4459125 20.424299207799997
In 0.0 11.91346 2.0000329479999994
In 2.9783649999999997 14.891824999999999 2.0000329479999994
In 2.9783649999999997 11.91346 4.978320792199999
In 0.0 14.891824999999999 4.978320792199999
P 1.4891825 13.4026425 6.467507051999999
P 1.4891825 16.381007500000003 3.4892192077999997
P 4.4675475 16.381007500000003 6.467507051999999
P 4.4675475 13.4026425 3.4892192077999997
In 0.0 11.91346 10.467572947999999
In 2.9783649999999997 14.891824999999999 10.467572947999999
In 2.9783649999999997 11.91346 13.445860792199998
In 0.0 14.891824999999999 13.445860792199998
P 1.4891825 13.4026425 14.935047051999998
P 1.4891825 16.381007500000003 11.956759207799998
P 4.4675475 16.381007500000003 14.935047051999998
P 4.4675475 13.4026425 11.956759207799998
In 0.0 11.91346 18.935112948
In 2.9783649999999997 14.891824999999999 18.935112948
In 2.9783649999999997 11.91346 21.913400792199997
In 0.0 14.891824999999999 21.913400792199997
P 1.4891825 13.4026425 23.402587051999998
P 1.4891825 16.381007500000003 20.424299207799997
P 4.4675475 16.381007500000003 23.402587051999998
P 4.4675475 13.4026425 20.424299207799997
In 2.9783649999999997 17.870190000000008 4.978320792199999
In 0.0 20.848555000000005 4.978320792199999
P 1.4891825 19.35937250000001 6.467507051999999
P 4.4675475 22.337737500000003 6.467507051999999
P 4.4675475 19.35937250000001 3.4892192077999997
In 0.0 17.870190000000008 10.467572947999999
In 2.9783649999999997 20.848555000000005 10.467572947999999
In 2.9783649999999997 17.870190000000008 13.445860792199998
In 0.0 20.848555000000005 13.445860792199998
P 1.4891825 19.35937250000001 14.935047051999998
P 1.4891825 22.337737500000003 11.956759207799998
P 4.4675475 22.337737500000003 14.935047051999998
P 4.4675475 19.35937250000001 11.956759207799998
In 0.0 17.870190000000008 18.935112948
In 2.9783649999999997 20.848555000000005 18.935112948
In 2.9783649999999997 17.870190000000008 21.913400792199997
P 4.4675475 19.35937250000001 20.424299207799997
In 0.0 23.82692 10.467572947999999
In 2.9783649999999997 23.82692 13.445860792199998
