178

In 2.978365 2.978365 10.467572947999999
In 2.978365 0.0 13.445860792199998
In 0.0 2.978365 13.445860792199998
P 1.4891824999999999 1.4891825 14.935047052
P 1.4891824999999999 4.4675475 11.9567592078
P 4.4675475 4.4675475 14.935047052
P 4.4675475 1.4891825 11.9567592078
In 0.0 0.0 18.935112948
In 2.978365 2.978365 18.935112948
In 2.978365 0.0 21.913400792199997
In 0.0 2.978365 21.913400792199997
P 1.4891824999999999 1.4891825 23.402587052
P 1.4891824999999999 4.4675475 20.424299207799997
P 4.4675475 4.4675475 23.402587052
P 4.4675475 1.4891825 20.424299207799997
In 0.0 0.0 27.402652948000004
In 2.978365 2.978365 27.402652948000004
In 2.978365 0.0 30.3809407922
P 1.4891824999999999 4.4675475 28.8918392078
P 4.4675475 4.4675475 31.870127052000004
P 4.4675475 1.4891825 28.8918392078
In 2.978365 8.935095 10.467572947999999
In 2.978365 5.956729999999999 13.445860792199998
In 0.0 8.935095 13.445860792199998
P 1.4891824999999999 7.4459125 14.935047052
P 4.4675475 10.4242775 14.935047052
P 4.4675475 7.4459125 11.9567592078
In 0.0 5.956729999999999 18.935112948
In 2.978365 8.935095 18.935112948
In 2.978365 5.956729999999999 21.913400792199997
In 0.0 8.935095 21.913400792199997
P 1.4891824999999999 7.4459125 23.402587052
P 1.4891824999999999 10.4242775 20.424299207799997
P 4.4675475 10.4242775 23.402587052
P 4.4675475 7.4459125 20.424299207799997
In 0.0 5.956729999999999 27.402652948000004
In 2.978365 8.935095 27.402652948000004
In 2.978365 5.956729999999999 30.3809407922
P 1.4891824999999999 10.4242775 28.8918392078
P 4.4675475 10.4242775 31.870127052000004
P 4.4675475 7.4459125 28.8918392078
In 5.95673 0.0 10.467572947999999
In 8.935095 2.978365 10.467572947999999
In 8.935095 0.0 13.445860792199998
In 5.95673 2.978365 13.445860792199998
P 7.4459125 1.4891825 14.935047052
P 7.4459125 4.4675475 11.9567592078
P 10.4242775 4.4675475 14.935047052
P 10.4242775 1.4891825 11.9567592078
In 5.95673 0.0 18.935112948
In 8.935095 2.978365 18.935112948
In 8.935095 0.0 21.913400792199997
In 5.95673 2.978365 21.913400792199997
P 7.4459125 1.4891825 23.402587052
P 7.4459125 4.4675475 20.424299207799997
P 10.4242775 4.4675475 23.402587052
P 10.4242775 1.4891825 20.424299207799997
In 5.95673 0.0 27.402652948000004
In 8.935095 2.978365 27.402652948000004
In 8.935095 0.0 30.3809407922
In 5.95673 2.978365 30.3809407922
P 7.4459125 1.4891825 31.870127052000004
P 7.4459125 4.4675475 28.8918392078
P 10.4242775 4.4675475 31.870127052000004
P 10.4242775 1.4891825 28.8918392078
In 5.95673 5.956729999999999 10.467572947999999
In 8.935095 8.935095 10.467572947999999
In 8.935095 5.956729999999999 13.445860792199998
In 5.95673 8.935095 13.445860792199998
P 7.4459125 7.4459125 14.935047052
P 7.4459125 10.4242775 11.9567592078
P 10.4242775 10.4242775 14.935047052
P 10.4242775 7.4459125 11.9567592078
In 5.95673 5.956729999999999 18.935112948
In 8.935095 8.935095 18.935112948
In 8.935095 5.956729999999999 21.913400792199997
In 5.95673 8.935095 21.913400792199997
P 7.4459125 7.4459125 23.402587052
P 7.4459125 10.4242775 20.424299207799997
P 10.4242775 10.4242775 23.402587052
P 10.4242775 7.4459125 20.424299207799997
In 5.95673 5.956729999999999 27.402652948000004
In 8.935095 8.935095 27.402652948000004
In 8.935095 5.956729999999999 30.3809407922
In 5.95673 8.935095 30.3809407922
P 7.4459125 7.4459125 31.870127052000004
P 7.4459125 10.4242775 28.8918392078
P 10.4242775 10.4242775 31.870127052000004
P 10.4242775 7.4459125 28.8918392078
In 11.913459999999999 0.0 10.467572947999999
In 14.891825 2.978365 10.467572947999999
In 14.891825 0.0 13.445860792199998
In 11.913459999999999 2.978365 13.445860792199998
P 13.4026425 1.4891825 14.935047052
P 13.4026425 4.4675475 11.9567592078
P 16.381007500000003 4.4675475 14.935047052
P 16.381007500000003 1.4891825 11.9567592078
In 11.913459999999999 0.0 18.935112948
In 14.891825 2.978365 18.935112948
In 14.891825 0.0 21.913400792199997
In 11.913459999999999 2.978365 21.913400792199997
P 13.4026425 1.4891825 23.402587052
P 13.4026425 4.4675475 20.424299207799997
P 16.381007500000003 4.4675475 23.402587052
P 16.381007500000003 1.4891825 20.424299207799997
In 11.913459999999999 0.0 27.402652948000004
In 14.891825 2.978365 27.402652948000004
In 14.891825 0.0 30.3809407922
In 11.913459999999999 2.978365 30.3809407922
P 13.4026425 1.4891825 31.870127052000004
P 13.4026425 4.4675475 28.8918392078
P 16.381007500000003 4.4675475 31.870127052000004
P 16.381007500000003 1.4891825 28.8918392078
In 11.913459999999999 5.956729999999999 10.467572947999999
In 14.891825 8.935095 10.467572947999999
In 14.891825 5.956729999999999 13.445860792199998
In 11.913459999999999 8.935095 13.445860792199998
P 13.4026425 7.4459125 14.935047052
P 13.4026425 10.4242775 11.9567592078
P 16.381007500000003 10.4242775 14.935047052
P 16.381007500000003 7.4459125 11.9567592078
In 11.913459999999999 5.956729999999999 18.935112948
In 14.891825 8.935095 18.935112948
In 14.891825 5.956729999999999 21.913400792199997
In 11.913459999999999 8.935095 21.913400792199997
P 13.4026425 7.4459125 23.402587052
P 13.4026425 10.4242775 20.424299207799997
P 16.381007500000003 10.4242775 23.402587052
P 16.381007500000003 7.4459125 20.424299207799997
In 11.913459999999999 5.956729999999999 27.402652948000004
In 14.891825 8.935095 27.402652948000004
In 14.891825 5.956729999999999 30.3809407922
In 11.913459999999999 8.935095 30.3809407922
P 13.4026425 7.4459125 31.870127052000004
P 13.4026425 10.4242775 28.8918392078
P 16.381007500000003 10.4242775 31.870127052000004
P 16.381007500000003 7.4459125 28.8918392078
In 17.87019 0.0 10.467572947999999
In 20.848555 0.0 13.445860792199998
In 17.87019 2.978365 13.445860792199998
P 19.3593725 1.4891825 14.935047052
P 19.3593725 4.4675475 11.9567592078
P 22.337737500000003 4.4675475 14.935047052
In 17.87019 0.0 18.935112948
In 20.848555 2.978365 18.935112948
In 20.848555 0.0 21.913400792199997
In 17.87019 2.978365 21.913400792199997
P 19.3593725 1.4891825 23.402587052
P 19.3593725 4.4675475 20.424299207799997
P 22.337737500000003 4.4675475 23.402587052
P 22.337737500000003 1.4891825 20.424299207799997
In 17.87019 0.0 27.402652948000004
In 20.848555 2.978365 27.402652948000004
In 17.87019 2.978365 30.3809407922
P 19.3593725 1.4891825 31.870127052000004
P 19.3593725 4.4675475 28.8918392078
P 22.337737500000003 1.4891825 28.8918392078
In 17.87019 5.956729999999999 10.467572947999999
In 20.848555 5.956729999999999 13.445860792199998
In 17.87019 8.935095 13.445860792199998
P 19.3593725 7.4459125 14.935047052
P 19.3593725 10.4242775 11.9567592078
P 22.337737500000003 10.4242775 14.935047052
In 17.87019 5.956729999999999 18.935112948
In 20.848555 8.935095 18.935112948
In 20.848555 5.956729999999999 21.913400792199997
In 17.87019 8.935095 21.913400792199997
P 19.3593725 7.4459125 23.402587052
P 19.3593725 10.4242775 20.424299207799997
P 22.337737500000003 10.4242775 23.402587052
P 22.337737500000003 7.4459125 20.424299207799997
In 17.87019 5.956729999999999 27.402652948000004
In 20.848555 8.935095 27.402652948000004
In 20.848555 5.956729999999999 30.3809407922
In 17.87019 8.935095 30.3809407922
P 19.3593725 7.4459125 31.870127052000004
P 19.3593725 10.4242775 28.8918392078
P 22.337737500000003 7.4459125 28.8918392078
