32

In 0.0 0.0 8.106046851
In 2.978365 2.10602 10.212013149
In 2.978365 6.31806 10.212013149
In 0.0 4.212039999999999 8.106046851
P 1.4891825 2.10602 8.106046851
P 1.4891825 6.31806 8.106046851
P 4.4675475 4.212039999999999 10.212013149
P 4.4675475 0.0 10.212013149
In 0.0 0.0 14.212066851
In 2.978365 2.10602 16.318033149
In 2.978365 6.31806 16.318033149
In 0.0 4.212039999999999 14.212066851
P 1.4891825 2.10602 14.212066851
P 1.4891825 6.31806 14.212066851
P 4.4675475 4.212039999999999 16.318033149
P 4.4675475 0.0 16.318033149
In 5.956729999999999 0.0 8.106046851
In 8.935095 2.10602 10.212013149
In 8.935095 6.31806 10.212013149
In 5.956729999999999 4.212039999999999 8.106046851
P 7.4459125 2.10602 8.106046851
P 7.4459125 6.31806 8.106046851
P 10.4242775 4.212039999999999 10.212013149
P 10.4242775 0.0 10.212013149
In 5.956729999999999 0.0 14.212066851
In 8.935095 2.10602 16.318033149
In 8.935095 6.31806 16.318033149
In 5.956729999999999 4.212039999999999 14.212066851
P 7.4459125 2.10602 14.212066851
P 7.4459125 6.31806 14.212066851
P 10.4242775 4.212039999999999 16.318033149
P 10.4242775 0.0 16.318033149
