36

P 4.4675475 4.4675475 6.467507052
P 4.4675475 1.4891825 3.4892192077999997
P 4.4675475 1.4891825 11.9567592078
In 8.935095 2.9783649999999997 2.000032948
In 8.935095 0.0 4.978320792199999
In 5.95673 2.9783649999999997 4.978320792199999
P 7.4459125 1.4891825 6.467507052
P 7.4459125 4.4675475 3.4892192077999997
P 10.4242775 4.4675475 6.467507052
P 10.4242775 1.4891825 3.4892192077999997
In 5.95673 0.0 10.467572947999999
In 8.935095 2.9783649999999997 10.467572947999999
In 8.935095 0.0 13.445860792199998
In 5.95673 2.9783649999999997 13.445860792199998
P 7.4459125 1.4891825 14.935047052
P 7.4459125 4.4675475 11.9567592078
P 10.4242775 4.4675475 14.935047052
P 10.4242775 1.4891825 11.9567592078
In 11.913459999999999 0.0 2.000032948
In 14.891825 2.9783649999999997 2.000032948
In 14.891825 0.0 4.978320792199999
In 11.913459999999999 2.9783649999999997 4.978320792199999
P 13.4026425 1.4891825 6.467507052
P 13.4026425 4.4675475 3.4892192077999997
P 16.381007500000003 4.4675475 6.467507052
P 16.381007500000003 1.4891825 3.4892192077999997
In 11.913459999999999 0.0 10.467572947999999
In 14.891825 2.9783649999999997 10.467572947999999
In 14.891825 0.0 13.445860792199998
In 11.913459999999999 2.9783649999999997 13.445860792199998
P 13.4026425 1.4891825 14.935047052
P 13.4026425 4.4675475 11.9567592078
P 16.381007500000003 1.4891825 11.9567592078
In 17.87019 2.9783649999999997 4.978320792199999
In 17.87019 0.0 10.467572947999999
In 17.87019 2.9783649999999997 13.445860792199998
