30

In 6.318059999999999 3.647733641756207 1.9999938612000001
P 4.212082120400001 4.863669173899221 2.8597861387999997
P 8.4241221204 4.863669173899221 2.8597861387999997
P 6.3181021204 1.215935532143014 2.8597861387999997
In 6.318059999999999 3.647733641756207 6.859773861199999
In 4.212039999999999 0.0 6.859773861199999
In 2.1060200000000004 3.647733641756207 6.859773861199999
P 2.1060621204000003 1.215935532143014 7.719566138799999
P 4.212082120400001 4.863669173899221 7.719566138799999
P 8.4241221204 4.863669173899221 7.719566138799999
P 6.3181021204 1.215935532143014 7.719566138799999
In 6.318059999999999 3.647733641756207 11.719553861199998
In 2.1060200000000004 3.647733641756207 11.719553861199998
P 4.212082120400001 4.863669173899221 12.579346138799998
P 8.4241221204 4.863669173899221 12.579346138799998
In 4.21204 7.295467283512413 1.9999938612000001
In 8.424079999999998 7.295467283512413 1.9999938612000001
P 6.318102120400001 8.511402815655428 2.8597861387999997
P 10.5301421204 8.511402815655428 2.8597861387999997
In 4.21204 7.295467283512413 6.859773861199999
In 10.530100000000001 10.94320092526862 6.859773861199999
In 8.424079999999998 7.295467283512413 6.859773861199999
In 6.318060000000001 10.94320092526862 6.859773861199999
P 6.318102120400001 8.511402815655428 7.719566138799999
P 8.424122120400002 12.159136457411634 7.719566138799999
P 10.5301421204 8.511402815655428 7.719566138799999
In 4.21204 7.295467283512413 11.719553861199998
In 8.424079999999998 7.295467283512413 11.719553861199998
In 6.318060000000001 10.94320092526862 11.719553861199998
P 6.318102120400001 8.511402815655428 12.579346138799998
