48

In 2.978365 2.10602 10.212013149
In 2.978365 6.31806 10.212013149
P 1.4891825 2.10602 8.106046851
P 1.4891825 6.31806 8.106046851
P 4.4675475 4.212039999999999 10.212013149
P 4.4675475 0.0 10.212013149
In 2.978365 2.10602 16.318033149
In 2.978365 6.31806 16.318033149
In 0.0 4.212039999999999 14.212066851
P 1.4891825 2.10602 14.212066851
P 1.4891825 6.31806 14.212066851
P 4.4675475 4.212039999999999 16.318033149
P 4.4675475 0.0 16.318033149
In 8.935094999999999 2.10602 4.105993149
In 8.935094999999999 6.31806 4.105993149
P 10.4242775 4.212039999999999 4.105993149
In 5.95673 0.0 8.106046851
In 8.935094999999999 2.10602 10.212013149
In 8.935094999999999 6.31806 10.212013149
In 5.95673 4.212039999999999 8.106046851
P 7.4459125 2.10602 8.106046851
P 7.4459125 6.31806 8.106046851
P 10.4242775 4.212039999999999 10.212013149
P 10.4242775 0.0 10.212013149
In 5.95673 0.0 14.212066851
In 8.935094999999999 2.10602 16.318033149
In 8.935094999999999 6.31806 16.318033149
In 5.95673 4.212039999999999 14.212066851
P 7.4459125 2.10602 14.212066851
P 7.4459125 6.31806 14.212066851
P 10.4242775 4.212039999999999 16.318033149
P 10.4242775 0.0 16.318033149
In 5.95673 4.212039999999999 20.318086851
P 7.4459125 2.10602 20.318086851
P 7.4459125 6.31806 20.318086851
In 11.91346 0.0 8.106046851
In 14.891825 2.10602 10.212013149
In 14.891825 6.31806 10.212013149
In 11.91346 4.212039999999999 8.106046851
P 13.4026425 2.10602 8.106046851
P 13.4026425 6.31806 8.106046851
P 16.381007500000003 4.212039999999999 10.212013149
In 11.91346 0.0 14.212066851
In 14.891825 2.10602 16.318033149
In 14.891825 6.31806 16.318033149
In 11.91346 4.212039999999999 14.212066851
P 13.4026425 2.10602 14.212066851
P 13.4026425 6.31806 14.212066851
