62

P 4.467547500000001 4.4675475 14.935047051999998
P 4.467547500000001 1.4891825 11.956759207799998
In 8.935095000000002 0.0 4.978320792199999
P 7.4459125 1.4891825 6.467507051999999
P 10.424277500000002 4.4675475 6.467507051999999
P 10.424277500000002 1.4891825 3.4892192077999997
In 5.95673 0.0 10.467572947999999
In 8.935095000000002 2.9783649999999997 10.467572947999999
In 8.935095000000002 0.0 13.445860792199998
In 5.95673 2.9783649999999997 13.445860792199998
P 7.4459125 1.4891825 14.935047051999998
P 7.4459125 4.4675475 11.956759207799998
P 10.424277500000002 4.4675475 14.935047051999998
P 10.424277500000002 1.4891825 11.956759207799998
In 5.95673 0.0 18.935112948
In 8.935095000000002 2.9783649999999997 18.935112948
In 8.935095000000002 0.0 21.913400792199997
P 7.4459125 4.4675475 20.424299207799997
P 10.424277500000002 1.4891825 20.424299207799997
In 11.91346 0.0 2.0000329479999994
In 14.891824999999999 2.9783649999999997 2.0000329479999994
In 14.891824999999999 0.0 4.978320792199999
In 11.91346 2.9783649999999997 4.978320792199999
P 13.4026425 1.4891825 6.467507051999999
P 13.4026425 4.4675475 3.4892192077999997
P 16.381007500000003 4.4675475 6.467507051999999
P 16.381007500000003 1.4891825 3.4892192077999997
In 11.91346 0.0 10.467572947999999
In 14.891824999999999 2.9783649999999997 10.467572947999999
In 14.891824999999999 0.0 13.445860792199998
In 11.91346 2.9783649999999997 13.445860792199998
P 13.4026425 1.4891825 14.935047051999998
P 13.4026425 4.4675475 11.956759207799998
P 16.381007500000003 4.4675475 14.935047051999998
P 16.381007500000003 1.4891825 11.956759207799998
In 11.91346 0.0 18.935112948
In 14.891824999999999 2.9783649999999997 18.935112948
In 14.891824999999999 0.0 21.913400792199997
In 11.91346 2.9783649999999997 21.913400792199997
P 13.4026425 1.4891825 23.402587051999998
P 13.4026425 4.4675475 20.424299207799997
P 16.381007500000003 4.4675475 23.402587051999998
P 16.381007500000003 1.4891825 20.424299207799997
In 20.848555000000005 0.0 4.978320792199999
In 17.870190000000008 2.9783649999999997 4.978320792199999
P 19.35937250000001 1.4891825 6.467507051999999
P 19.35937250000001 4.4675475 3.4892192077999997
P 22.337737500000003 4.4675475 6.467507051999999
In 17.870190000000008 0.0 10.467572947999999
In 20.848555000000005 2.9783649999999997 10.467572947999999
In 20.848555000000005 0.0 13.445860792199998
In 17.870190000000008 2.9783649999999997 13.445860792199998
P 19.35937250000001 1.4891825 14.935047051999998
P 19.35937250000001 4.4675475 11.956759207799998
P 22.337737500000003 4.4675475 14.935047051999998
P 22.337737500000003 1.4891825 11.956759207799998
In 17.870190000000008 0.0 18.935112948
In 20.848555000000005 2.9783649999999997 18.935112948
In 17.870190000000008 2.9783649999999997 21.913400792199997
P 19.35937250000001 4.4675475 20.424299207799997
In 23.82692 0.0 10.467572947999999
In 23.82692 2.9783649999999997 13.445860792199998
