150

In 2.978365 6.31806 4.105993149
In 2.978365 2.1060200000000004 10.212013149
In 2.978365 6.31806 10.212013149
P 1.4891825 6.31806 8.106046851
P 4.4675475 4.212040000000001 10.212013149
In 2.978365 6.31806 16.318033149
In 0.0 4.212040000000001 14.212066851
P 1.4891825 6.31806 14.212066851
P 4.4675475 4.212040000000001 16.318033149
In 2.978365 10.530100000000003 4.105993149
In 2.978365 14.742140000000001 4.105993149
P 4.4675475 12.636119999999998 4.105993149
P 4.4675475 8.424080000000002 4.105993149
In 0.0 8.424080000000002 8.106046851
In 2.978365 10.530100000000003 10.212013149
In 2.978365 14.742140000000001 10.212013149
In 0.0 12.636119999999998 8.106046851
P 1.4891825 10.530100000000003 8.106046851
P 1.4891825 14.742140000000001 8.106046851
P 4.4675475 12.636119999999998 10.212013149
P 4.4675475 8.424080000000002 10.212013149
In 0.0 8.424080000000002 14.212066851
In 2.978365 10.530100000000003 16.318033149
In 2.978365 14.742140000000001 16.318033149
In 0.0 12.636119999999998 14.212066851
P 1.4891825 10.530100000000003 14.212066851
P 1.4891825 14.742140000000001 14.212066851
P 4.4675475 12.636119999999998 16.318033149
P 4.4675475 8.424080000000002 16.318033149
P 1.4891825 10.530100000000003 20.318086851
P 1.4891825 14.742140000000001 20.318086851
P 4.4675475 12.636119999999998 22.424053149
P 4.4675475 16.848160000000004 4.105993149
In 0.0 16.848160000000004 8.106046851
In 2.978365 18.954180000000004 10.212013149
P 1.4891825 18.954180000000004 8.106046851
P 4.4675475 21.060200000000005 10.212013149
P 4.4675475 16.848160000000004 10.212013149
In 0.0 16.848160000000004 14.212066851
In 2.978365 18.954180000000004 16.318033149
P 1.4891825 18.954180000000004 14.212066851
P 4.4675475 21.060200000000005 16.318033149
P 4.4675475 16.848160000000004 16.318033149
In 8.935094999999999 6.31806 4.105993149
P 10.4242775 4.212040000000001 4.105993149
In 8.935094999999999 2.1060200000000004 10.212013149
In 8.935094999999999 6.31806 10.212013149
In 5.95673 4.212040000000001 8.106046851
P 7.4459125 2.1060200000000004 8.106046851
P 7.4459125 6.31806 8.106046851
P 10.4242775 4.212040000000001 10.212013149
In 8.935094999999999 2.1060200000000004 16.318033149
In 8.935094999999999 6.31806 16.318033149
In 5.95673 4.212040000000001 14.212066851
P 7.4459125 2.1060200000000004 14.212066851
P 7.4459125 6.31806 14.212066851
P 10.4242775 4.212040000000001 16.318033149
In 5.95673 4.212040000000001 20.318086851
P 7.4459125 6.31806 20.318086851
In 5.95673 8.424080000000002 2.000026851
In 8.935094999999999 10.530100000000003 4.105993149
In 8.935094999999999 14.742140000000001 4.105993149
In 5.95673 12.636119999999998 2.000026851
P 7.4459125 10.530100000000003 2.000026851
P 7.4459125 14.742140000000001 2.000026851
P 10.4242775 12.636119999999998 4.105993149
P 10.4242775 8.424080000000002 4.105993149
In 5.95673 8.424080000000002 8.106046851
In 8.935094999999999 10.530100000000003 10.212013149
In 8.935094999999999 14.742140000000001 10.212013149
In 5.95673 12.636119999999998 8.106046851
P 7.4459125 10.530100000000003 8.106046851
P 7.4459125 14.742140000000001 8.106046851
P 10.4242775 12.636119999999998 10.212013149
P 10.4242775 8.424080000000002 10.212013149
In 5.95673 8.424080000000002 14.212066851
In 8.935094999999999 10.530100000000003 16.318033149
In 8.935094999999999 14.742140000000001 16.318033149
In 5.95673 12.636119999999998 14.212066851
P 7.4459125 10.530100000000003 14.212066851
P 7.4459125 14.742140000000001 14.212066851
P 10.4242775 12.636119999999998 16.318033149
P 10.4242775 8.424080000000002 16.318033149
In 5.95673 8.424080000000002 20.318086851
In 8.935094999999999 10.530100000000003 22.424053149
In 8.935094999999999 14.742140000000001 22.424053149
In 5.95673 12.636119999999998 20.318086851
P 7.4459125 10.530100000000003 20.318086851
P 7.4459125 14.742140000000001 20.318086851
P 10.4242775 12.636119999999998 22.424053149
P 10.4242775 8.424080000000002 22.424053149
In 8.935094999999999 18.954180000000004 4.105993149
P 10.4242775 16.848160000000004 4.105993149
In 5.95673 16.848160000000004 8.106046851
In 8.935094999999999 18.954180000000004 10.212013149
In 5.95673 21.060200000000005 8.106046851
P 7.4459125 18.954180000000004 8.106046851
P 10.4242775 21.060200000000005 10.212013149
P 10.4242775 16.848160000000004 10.212013149
In 5.95673 16.848160000000004 14.212066851
In 8.935094999999999 18.954180000000004 16.318033149
In 5.95673 21.060200000000005 14.212066851
P 7.4459125 18.954180000000004 14.212066851
P 10.4242775 21.060200000000005 16.318033149
P 10.4242775 16.848160000000004 16.318033149
In 5.95673 16.848160000000004 20.318086851
P 7.4459125 18.954180000000004 20.318086851
In 14.891825 6.31806 10.212013149
In 11.91346 4.212040000000001 8.106046851
P 13.4026425 6.31806 8.106046851
P 16.381007500000003 4.212040000000001 10.212013149
In 14.891825 6.31806 16.318033149
In 11.91346 4.212040000000001 14.212066851
P 13.4026425 2.1060200000000004 14.212066851
P 13.4026425 6.31806 14.212066851
P 13.4026425 6.31806 20.318086851
In 14.891825 10.530100000000003 4.105993149
In 14.891825 14.742140000000001 4.105993149
In 11.91346 12.636119999999998 2.000026851
In 11.91346 8.424080000000002 8.106046851
In 14.891825 10.530100000000003 10.212013149
In 14.891825 14.742140000000001 10.212013149
In 11.91346 12.636119999999998 8.106046851
P 13.4026425 10.530100000000003 8.106046851
P 13.4026425 14.742140000000001 8.106046851
P 16.381007500000003 12.636119999999998 10.212013149
P 16.381007500000003 8.424080000000002 10.212013149
In 11.91346 8.424080000000002 14.212066851
In 14.891825 10.530100000000003 16.318033149
In 14.891825 14.742140000000001 16.318033149
In 11.91346 12.636119999999998 14.212066851
P 13.4026425 10.530100000000003 14.212066851
P 13.4026425 14.742140000000001 14.212066851
P 16.381007500000003 12.636119999999998 16.318033149
P 16.381007500000003 8.424080000000002 16.318033149
In 11.91346 8.424080000000002 20.318086851
In 11.91346 12.636119999999998 20.318086851
P 13.4026425 10.530100000000003 20.318086851
P 13.4026425 14.742140000000001 20.318086851
In 11.91346 16.848160000000004 8.106046851
In 14.891825 18.954180000000004 10.212013149
In 11.91346 21.060200000000005 8.106046851
P 13.4026425 18.954180000000004 8.106046851
P 16.381007500000003 16.848160000000004 10.212013149
In 11.91346 16.848160000000004 14.212066851
In 14.891825 18.954180000000004 16.318033149
In 11.91346 21.060200000000005 14.212066851
P 13.4026425 18.954180000000004 14.212066851
P 16.381007500000003 16.848160000000004 16.318033149
In 11.91346 16.848160000000004 20.318086851
