18

P 8.4241221204 4.863669173899221 2.8597861387999997
In 4.212040000000001 7.295467283512414 1.9999938612
In 10.530100000000001 10.94320092526862 1.9999938612
In 8.42408 7.295467283512414 1.9999938612
In 6.318060000000001 10.94320092526862 1.9999938612
P 6.318102120400001 8.511402815655428 2.8597861387999997
P 8.424122120400002 12.159136457411634 2.8597861387999997
P 12.636162120400002 12.159136457411634 2.8597861387999997
P 10.5301421204 8.511402815655428 2.8597861387999997
In 8.42408 14.590934567024826 1.9999938612
In 14.742140000000001 18.238668208781036 1.9999938612
In 12.63612 14.590934567024826 1.9999938612
In 10.530100000000003 18.238668208781036 1.9999938612
P 10.530142120400003 15.80687009916784 2.8597861387999997
P 12.636162120400002 19.454603740924046 2.8597861387999997
P 16.848202120400003 19.454603740924046 2.8597861387999997
P 14.742182120400003 15.80687009916784 2.8597861387999997
In 12.636120000000002 21.88640185053724 1.9999938612
