252

In 14.742140000000001 18.238668208781032 1.9999938612
In 12.636120000000002 14.590934567024831 1.9999938612
P 12.636162120400002 19.45460374092405 2.8597861387999997
P 16.848202120400003 19.45460374092405 2.8597861387999997
P 14.742182120400003 15.806870099167844 2.8597861387999997
In 14.742140000000001 18.238668208781032 6.8597738612
In 12.636120000000002 14.590934567024831 6.8597738612
P 12.636162120400002 19.45460374092405 7.719566138799999
P 16.848202120400003 19.45460374092405 7.719566138799999
P 14.742182120400003 15.806870099167844 7.719566138799999
In 18.954180000000008 25.534135492293455 1.9999938612
In 16.848160000000007 21.88640185053725 1.9999938612
In 14.742140000000006 25.534135492293455 1.9999938612
P 14.742182120400006 23.102337382680265 2.8597861387999997
P 16.848202120400007 26.75007102443647 2.8597861387999997
P 21.060242120400005 26.75007102443647 2.8597861387999997
P 18.954222120400004 23.102337382680265 2.8597861387999997
In 18.954180000000008 25.534135492293455 6.8597738612
In 16.848160000000007 21.88640185053725 6.8597738612
In 14.742140000000006 25.534135492293455 6.8597738612
P 14.742182120400006 23.102337382680265 7.719566138799999
P 16.848202120400007 26.75007102443647 7.719566138799999
P 21.060242120400005 26.75007102443647 7.719566138799999
P 18.954222120400004 23.102337382680265 7.719566138799999
In 23.166220000000003 32.82960277580587 1.9999938612
In 21.060200000000002 29.181869134049663 1.9999938612
P 18.954222120400004 30.397804666192677 2.8597861387999997
P 23.166262120400003 30.397804666192677 2.8597861387999997
In 23.166220000000003 32.82960277580587 6.8597738612
In 21.060200000000002 29.181869134049663 6.8597738612
P 18.954222120400004 30.397804666192677 7.719566138799999
P 23.166262120400003 30.397804666192677 7.719566138799999
In 18.95418 10.943200925268624 1.9999938612
In 16.848160000000004 7.295467283512416 1.9999938612
In 14.742140000000004 10.943200925268624 1.9999938612
P 14.742182120400004 8.51140281565543 2.8597861387999997
P 16.848202120400003 12.159136457411636 2.8597861387999997
P 21.060242120400005 12.159136457411636 2.8597861387999997
P 18.954222120400004 8.51140281565543 2.8597861387999997
In 18.95418 10.943200925268624 6.8597738612
In 16.848160000000004 7.295467283512416 6.8597738612
In 14.742140000000004 10.943200925268624 6.8597738612
P 14.742182120400004 8.51140281565543 7.719566138799999
P 16.848202120400003 12.159136457411636 7.719566138799999
P 21.060242120400005 12.159136457411636 7.719566138799999
P 18.954222120400004 8.51140281565543 7.719566138799999
In 16.848160000000004 14.590934567024831 1.9999938612
In 23.16622 18.238668208781032 1.9999938612
In 21.060200000000002 14.590934567024831 1.9999938612
In 18.954180000000004 18.238668208781032 1.9999938612
P 18.954222120400004 15.806870099167844 2.8597861387999997
P 21.060242120400005 19.45460374092405 2.8597861387999997
P 25.272282120400003 19.45460374092405 2.8597861387999997
P 23.166262120400003 15.806870099167844 2.8597861387999997
In 16.848160000000004 14.590934567024831 6.8597738612
In 23.16622 18.238668208781032 6.8597738612
In 21.060200000000002 14.590934567024831 6.8597738612
In 18.954180000000004 18.238668208781032 6.8597738612
P 18.954222120400004 15.806870099167844 7.719566138799999
P 21.060242120400005 19.45460374092405 7.719566138799999
P 25.272282120400003 19.45460374092405 7.719566138799999
P 23.166262120400003 15.806870099167844 7.719566138799999
In 21.060200000000005 21.88640185053725 1.9999938612
In 27.378260000000004 25.534135492293455 1.9999938612
In 25.272240000000004 21.88640185053725 1.9999938612
In 23.166220000000006 25.534135492293455 1.9999938612
P 23.166262120400006 23.102337382680265 2.8597861387999997
P 25.272282120400007 26.75007102443647 2.8597861387999997
P 29.484322120400005 26.75007102443647 2.8597861387999997
P 27.378302120400004 23.102337382680265 2.8597861387999997
In 21.060200000000005 21.88640185053725 6.8597738612
In 27.378260000000004 25.534135492293455 6.8597738612
In 25.272240000000004 21.88640185053725 6.8597738612
In 23.166220000000006 25.534135492293455 6.8597738612
P 23.166262120400006 23.102337382680265 7.719566138799999
P 25.272282120400007 26.75007102443647 7.719566138799999
P 29.484322120400005 26.75007102443647 7.719566138799999
P 27.378302120400004 23.102337382680265 7.719566138799999
In 25.272240000000007 29.181869134049663 1.9999938612
In 31.590300000000006 32.82960277580587 1.9999938612
In 29.484280000000005 29.181869134049663 1.9999938612
In 27.378260000000008 32.82960277580587 1.9999938612
P 27.378302120400008 30.397804666192677 2.8597861387999997
P 29.48432212040001 34.04553830794888 2.8597861387999997
P 31.590342120400006 30.397804666192677 2.8597861387999997
In 25.272240000000007 29.181869134049663 6.8597738612
In 31.590300000000006 32.82960277580587 6.8597738612
In 29.484280000000005 29.181869134049663 6.8597738612
In 27.378260000000008 32.82960277580587 6.8597738612
P 27.378302120400008 30.397804666192677 7.719566138799999
P 29.48432212040001 34.04553830794888 7.719566138799999
P 31.590342120400006 30.397804666192677 7.719566138799999
In 23.16622 3.6477336417562074 1.9999938612
In 18.954180000000004 3.6477336417562074 1.9999938612
P 21.060242120400005 4.863669173899222 2.8597861387999997
P 25.2722821204 4.863669173899222 2.8597861387999997
P 23.1662621204 1.215935532143014 2.8597861387999997
In 23.16622 3.6477336417562074 6.8597738612
In 18.954180000000004 3.6477336417562074 6.8597738612
P 21.060242120400005 4.863669173899222 7.719566138799999
P 25.2722821204 4.863669173899222 7.719566138799999
P 23.1662621204 1.215935532143014 7.719566138799999
In 21.060200000000005 7.295467283512416 1.9999938612
In 27.37826 10.943200925268624 1.9999938612
In 25.27224 7.295467283512416 1.9999938612
In 23.166220000000006 10.943200925268624 1.9999938612
P 23.166262120400006 8.51140281565543 2.8597861387999997
P 25.272282120400007 12.159136457411636 2.8597861387999997
P 29.4843221204 12.159136457411636 2.8597861387999997
P 27.3783021204 8.51140281565543 2.8597861387999997
In 21.060200000000005 7.295467283512416 6.8597738612
In 27.37826 10.943200925268624 6.8597738612
In 25.27224 7.295467283512416 6.8597738612
In 23.166220000000006 10.943200925268624 6.8597738612
P 23.166262120400006 8.51140281565543 7.719566138799999
P 25.272282120400007 12.159136457411636 7.719566138799999
P 29.4843221204 12.159136457411636 7.719566138799999
P 27.3783021204 8.51140281565543 7.719566138799999
In 25.272240000000007 14.590934567024831 1.9999938612
In 31.5903 18.238668208781032 1.9999938612
In 29.484280000000002 14.590934567024831 1.9999938612
In 27.378260000000008 18.238668208781032 1.9999938612
P 27.378302120400008 15.806870099167844 2.8597861387999997
P 29.48432212040001 19.45460374092405 2.8597861387999997
P 33.69636212040001 19.45460374092405 2.8597861387999997
P 31.590342120400003 15.806870099167844 2.8597861387999997
In 25.272240000000007 14.590934567024831 6.8597738612
In 31.5903 18.238668208781032 6.8597738612
In 29.484280000000002 14.590934567024831 6.8597738612
In 27.378260000000008 18.238668208781032 6.8597738612
P 27.378302120400008 15.806870099167844 7.719566138799999
P 29.48432212040001 19.45460374092405 7.719566138799999
P 33.69636212040001 19.45460374092405 7.719566138799999
P 31.590342120400003 15.806870099167844 7.719566138799999
In 29.48428000000001 21.88640185053725 1.9999938612
In 35.80234000000001 25.534135492293455 1.9999938612
In 33.69632000000001 21.88640185053725 1.9999938612
In 31.590300000000006 25.534135492293455 1.9999938612
P 31.590342120400013 23.102337382680265 2.8597861387999997
P 33.69636212040001 26.75007102443647 2.8597861387999997
P 37.90840212040001 26.75007102443647 2.8597861387999997
P 35.80238212040001 23.102337382680265 2.8597861387999997
In 29.48428000000001 21.88640185053725 6.8597738612
In 35.80234000000001 25.534135492293455 6.8597738612
In 33.69632000000001 21.88640185053725 6.8597738612
In 31.590300000000006 25.534135492293455 6.8597738612
P 31.590342120400013 23.102337382680265 7.719566138799999
P 33.69636212040001 26.75007102443647 7.719566138799999
P 37.90840212040001 26.75007102443647 7.719566138799999
P 35.80238212040001 23.102337382680265 7.719566138799999
In 33.69632000000001 29.181869134049663 1.9999938612
In 37.90836000000001 29.181869134049663 1.9999938612
In 35.80234000000001 32.82960277580587 1.9999938612
P 35.802382120400004 30.397804666192677 2.8597861387999997
P 40.014422120400006 30.397804666192677 2.8597861387999997
In 33.69632000000001 29.181869134049663 6.8597738612
In 37.90836000000001 29.181869134049663 6.8597738612
In 35.80234000000001 32.82960277580587 6.8597738612
P 35.802382120400004 30.397804666192677 7.719566138799999
P 40.014422120400006 30.397804666192677 7.719566138799999
In 31.590300000000006 3.6477336417562074 1.9999938612
In 29.484280000000005 0.0 1.9999938612
In 27.378260000000008 3.6477336417562074 1.9999938612
P 27.378302120400008 1.215935532143014 2.8597861387999997
P 29.48432212040001 4.863669173899222 2.8597861387999997
P 33.69636212040001 4.863669173899222 2.8597861387999997
P 31.590342120400003 1.215935532143014 2.8597861387999997
In 31.590300000000006 3.6477336417562074 6.8597738612
In 29.484280000000005 0.0 6.8597738612
In 27.378260000000008 3.6477336417562074 6.8597738612
P 27.378302120400008 1.215935532143014 7.719566138799999
P 29.48432212040001 4.863669173899222 7.719566138799999
P 33.69636212040001 4.863669173899222 7.719566138799999
P 31.590342120400003 1.215935532143014 7.719566138799999
In 29.48428000000001 7.295467283512416 1.9999938612
In 35.80234000000001 10.943200925268624 1.9999938612
In 33.69632000000001 7.295467283512416 1.9999938612
In 31.59030000000001 10.943200925268624 1.9999938612
P 31.59034212040001 8.51140281565543 2.8597861387999997
P 33.69636212040001 12.159136457411636 2.8597861387999997
P 37.90840212040001 12.159136457411636 2.8597861387999997
P 35.80238212040001 8.51140281565543 2.8597861387999997
In 29.48428000000001 7.295467283512416 6.8597738612
In 35.80234000000001 10.943200925268624 6.8597738612
In 33.69632000000001 7.295467283512416 6.8597738612
In 31.59030000000001 10.943200925268624 6.8597738612
P 31.59034212040001 8.51140281565543 7.719566138799999
P 33.69636212040001 12.159136457411636 7.719566138799999
P 37.90840212040001 12.159136457411636 7.719566138799999
P 35.80238212040001 8.51140281565543 7.719566138799999
In 33.69632000000001 14.590934567024831 1.9999938612
In 40.01438000000001 18.238668208781032 1.9999938612
In 37.90836000000001 14.590934567024831 1.9999938612
In 35.80234 18.238668208781032 1.9999938612
P 35.802382120400004 15.806870099167844 2.8597861387999997
P 37.908402120400005 19.45460374092405 2.8597861387999997
P 42.1204421204 19.45460374092405 2.8597861387999997
P 40.014422120400006 15.806870099167844 2.8597861387999997
In 33.69632000000001 14.590934567024831 6.8597738612
In 40.01438000000001 18.238668208781032 6.8597738612
In 37.90836000000001 14.590934567024831 6.8597738612
In 35.80234 18.238668208781032 6.8597738612
P 35.802382120400004 15.806870099167844 7.719566138799999
P 37.908402120400005 19.45460374092405 7.719566138799999
P 42.1204421204 19.45460374092405 7.719566138799999
P 40.014422120400006 15.806870099167844 7.719566138799999
In 37.90836000000001 21.88640185053725 1.9999938612
In 44.22642000000001 25.534135492293455 1.9999938612
In 42.12040000000001 21.88640185053725 1.9999938612
In 40.01438000000001 25.534135492293455 1.9999938612
P 40.014422120400006 23.102337382680265 2.8597861387999997
P 42.12044212040001 26.75007102443647 2.8597861387999997
P 44.22646212040001 23.102337382680265 2.8597861387999997
In 37.90836000000001 21.88640185053725 6.8597738612
In 44.22642000000001 25.534135492293455 6.8597738612
In 42.12040000000001 21.88640185053725 6.8597738612
In 40.01438000000001 25.534135492293455 6.8597738612
P 40.014422120400006 23.102337382680265 7.719566138799999
P 42.12044212040001 26.75007102443647 7.719566138799999
P 44.22646212040001 23.102337382680265 7.719566138799999
In 40.01438000000001 3.6477336417562074 1.9999938612
In 35.80234000000001 3.6477336417562074 1.9999938612
P 35.802382120400004 1.215935532143014 2.8597861387999997
P 37.908402120400005 4.863669173899222 2.8597861387999997
In 40.01438000000001 3.6477336417562074 6.8597738612
In 35.80234000000001 3.6477336417562074 6.8597738612
P 35.802382120400004 1.215935532143014 7.719566138799999
P 37.908402120400005 4.863669173899222 7.719566138799999
In 37.90836000000001 7.295467283512416 1.9999938612
In 44.22642000000001 10.943200925268624 1.9999938612
In 42.12040000000001 7.295467283512416 1.9999938612
In 40.01438000000001 10.943200925268624 1.9999938612
P 40.014422120400006 8.51140281565543 2.8597861387999997
P 42.12044212040001 12.159136457411636 2.8597861387999997
P 44.2264621204 8.51140281565543 2.8597861387999997
In 37.90836000000001 7.295467283512416 6.8597738612
In 44.22642000000001 10.943200925268624 6.8597738612
In 42.12040000000001 7.295467283512416 6.8597738612
In 40.01438000000001 10.943200925268624 6.8597738612
P 40.014422120400006 8.51140281565543 7.719566138799999
P 42.12044212040001 12.159136457411636 7.719566138799999
P 44.2264621204 8.51140281565543 7.719566138799999
In 42.12040000000001 14.590934567024831 1.9999938612
In 46.33244000000001 14.590934567024831 1.9999938612
In 44.22642000000001 18.238668208781032 1.9999938612
P 44.22646212040001 15.806870099167844 2.8597861387999997
P 46.33248212040001 19.45460374092405 2.8597861387999997
In 42.12040000000001 14.590934567024831 6.8597738612
In 46.33244000000001 14.590934567024831 6.8597738612
In 44.22642000000001 18.238668208781032 6.8597738612
P 44.22646212040001 15.806870099167844 7.719566138799999
P 46.33248212040001 19.45460374092405 7.719566138799999
