210

In 2.978365 6.31806 10.212013148999999
In 2.978365 10.530100000000001 4.105993149
In 2.978365 14.742139999999997 4.105993149
P 1.4891824999999999 14.742139999999997 2.000026851
P 4.4675475 12.63612 4.105993149
P 4.4675475 8.42408 4.105993149
In 2.978365 10.530100000000001 10.212013148999999
In 2.978365 14.742139999999997 10.212013148999999
In 0.0 12.63612 8.106046850999999
P 1.4891824999999999 10.530100000000001 8.106046850999999
P 1.4891824999999999 14.742139999999997 8.106046850999999
P 4.4675475 12.63612 10.212013148999999
P 4.4675475 8.42408 10.212013148999999
In 2.978365 10.530100000000001 16.318033148999998
In 2.978365 14.742139999999997 16.318033148999998
In 0.0 12.63612 14.212066850999998
P 1.4891824999999999 10.530100000000001 14.212066850999998
P 1.4891824999999999 14.742139999999997 14.212066850999998
P 4.4675475 12.63612 16.318033148999998
P 4.4675475 8.42408 16.318033148999998
In 2.978365 18.95418 4.105993149
In 2.978365 23.166219999999996 4.105993149
P 1.4891824999999999 18.95418 2.000026851
P 4.4675475 21.060200000000002 4.105993149
P 4.4675475 16.848159999999996 4.105993149
In 0.0 16.848159999999996 8.106046850999999
In 2.978365 18.95418 10.212013148999999
In 2.978365 23.166219999999996 10.212013148999999
In 0.0 21.060200000000002 8.106046850999999
P 1.4891824999999999 18.95418 8.106046850999999
P 1.4891824999999999 23.166219999999996 8.106046850999999
P 4.4675475 21.060200000000002 10.212013148999999
P 4.4675475 16.848159999999996 10.212013148999999
In 0.0 16.848159999999996 14.212066850999998
In 2.978365 18.95418 16.318033148999998
P 1.4891824999999999 18.95418 14.212066850999998
P 4.4675475 21.060200000000002 16.318033148999998
P 4.4675475 16.848159999999996 16.318033148999998
P 4.4675475 25.27224 4.105993149
P 4.4675475 25.27224 10.212013148999999
In 8.935095 6.31806 4.105993149
P 7.4459125 6.31806 2.000026851
P 10.4242775 4.21204 4.105993149
In 8.935095 6.31806 10.212013148999999
In 5.95673 4.21204 8.106046850999999
P 7.4459125 6.31806 8.106046850999999
P 10.4242775 4.21204 10.212013148999999
In 8.935095 6.31806 16.318033148999998
P 7.4459125 6.31806 14.212066850999998
In 5.95673 8.42408 2.000026851
In 8.935095 10.530100000000001 4.105993149
In 8.935095 14.742139999999997 4.105993149
In 5.95673 12.63612 2.000026851
P 7.4459125 10.530100000000001 2.000026851
P 7.4459125 14.742139999999997 2.000026851
P 10.4242775 12.63612 4.105993149
P 10.4242775 8.42408 4.105993149
In 5.95673 8.42408 8.106046850999999
In 8.935095 10.530100000000001 10.212013148999999
In 8.935095 14.742139999999997 10.212013148999999
In 5.95673 12.63612 8.106046850999999
P 7.4459125 10.530100000000001 8.106046850999999
P 7.4459125 14.742139999999997 8.106046850999999
P 10.4242775 12.63612 10.212013148999999
P 10.4242775 8.42408 10.212013148999999
In 5.95673 8.42408 14.212066850999998
In 8.935095 10.530100000000001 16.318033148999998
In 8.935095 14.742139999999997 16.318033148999998
In 5.95673 12.63612 14.212066850999998
P 7.4459125 10.530100000000001 14.212066850999998
P 7.4459125 14.742139999999997 14.212066850999998
P 10.4242775 12.63612 16.318033148999998
P 10.4242775 8.42408 16.318033148999998
In 5.95673 16.848159999999996 2.000026851
In 8.935095 18.95418 4.105993149
In 8.935095 23.166219999999996 4.105993149
In 5.95673 21.060200000000002 2.000026851
P 7.4459125 18.95418 2.000026851
P 7.4459125 23.166219999999996 2.000026851
P 10.4242775 21.060200000000002 4.105993149
P 10.4242775 16.848159999999996 4.105993149
In 5.95673 16.848159999999996 8.106046850999999
In 8.935095 18.95418 10.212013148999999
In 8.935095 23.166219999999996 10.212013148999999
In 5.95673 21.060200000000002 8.106046850999999
P 7.4459125 18.95418 8.106046850999999
P 7.4459125 23.166219999999996 8.106046850999999
P 10.4242775 21.060200000000002 10.212013148999999
P 10.4242775 16.848159999999996 10.212013148999999
In 5.95673 16.848159999999996 14.212066850999998
In 8.935095 18.95418 16.318033148999998
In 8.935095 23.166219999999996 16.318033148999998
In 5.95673 21.060200000000002 14.212066850999998
P 7.4459125 18.95418 14.212066850999998
P 7.4459125 23.166219999999996 14.212066850999998
P 10.4242775 21.060200000000002 16.318033148999998
P 10.4242775 16.848159999999996 16.318033148999998
In 8.935095 27.37826 4.105993149
P 10.4242775 25.27224 4.105993149
In 5.95673 25.27224 8.106046850999999
In 8.935095 27.37826 10.212013148999999
P 7.4459125 27.37826 8.106046850999999
P 10.4242775 25.27224 10.212013148999999
In 5.95673 25.27224 14.212066850999998
P 10.4242775 25.27224 16.318033148999998
In 14.891825 6.31806 4.105993149
P 13.4026425 6.31806 2.000026851
In 14.891825 6.31806 10.212013148999999
In 11.913459999999999 4.21204 8.106046850999999
P 13.4026425 6.31806 8.106046850999999
P 16.381007500000003 4.21204 10.212013148999999
In 14.891825 6.31806 16.318033148999998
In 11.913459999999999 4.21204 14.212066850999998
P 13.4026425 6.31806 14.212066850999998
In 11.913459999999999 8.42408 2.000026851
In 14.891825 10.530100000000001 4.105993149
In 14.891825 14.742139999999997 4.105993149
In 11.913459999999999 12.63612 2.000026851
P 13.4026425 10.530100000000001 2.000026851
P 13.4026425 14.742139999999997 2.000026851
P 16.381007500000003 12.63612 4.105993149
P 16.381007500000003 8.42408 4.105993149
In 11.913459999999999 8.42408 8.106046850999999
In 14.891825 10.530100000000001 10.212013148999999
In 14.891825 14.742139999999997 10.212013148999999
In 11.913459999999999 12.63612 8.106046850999999
P 13.4026425 10.530100000000001 8.106046850999999
P 13.4026425 14.742139999999997 8.106046850999999
P 16.381007500000003 12.63612 10.212013148999999
P 16.381007500000003 8.42408 10.212013148999999
In 11.913459999999999 8.42408 14.212066850999998
In 14.891825 10.530100000000001 16.318033148999998
In 14.891825 14.742139999999997 16.318033148999998
In 11.913459999999999 12.63612 14.212066850999998
P 13.4026425 10.530100000000001 14.212066850999998
P 13.4026425 14.742139999999997 14.212066850999998
P 16.381007500000003 12.63612 16.318033148999998
P 16.381007500000003 8.42408 16.318033148999998
In 11.913459999999999 16.848159999999996 2.000026851
In 14.891825 18.95418 4.105993149
In 14.891825 23.166219999999996 4.105993149
In 11.913459999999999 21.060200000000002 2.000026851
P 13.4026425 18.95418 2.000026851
P 13.4026425 23.166219999999996 2.000026851
P 16.381007500000003 21.060200000000002 4.105993149
P 16.381007500000003 16.848159999999996 4.105993149
In 11.913459999999999 16.848159999999996 8.106046850999999
In 14.891825 18.95418 10.212013148999999
In 14.891825 23.166219999999996 10.212013148999999
In 11.913459999999999 21.060200000000002 8.106046850999999
P 13.4026425 18.95418 8.106046850999999
P 13.4026425 23.166219999999996 8.106046850999999
P 16.381007500000003 21.060200000000002 10.212013148999999
P 16.381007500000003 16.848159999999996 10.212013148999999
In 11.913459999999999 16.848159999999996 14.212066850999998
In 14.891825 18.95418 16.318033148999998
In 14.891825 23.166219999999996 16.318033148999998
In 11.913459999999999 21.060200000000002 14.212066850999998
P 13.4026425 18.95418 14.212066850999998
P 13.4026425 23.166219999999996 14.212066850999998
P 16.381007500000003 21.060200000000002 16.318033148999998
P 16.381007500000003 16.848159999999996 16.318033148999998
In 11.913459999999999 25.27224 2.000026851
P 16.381007500000003 25.27224 4.105993149
In 11.913459999999999 25.27224 8.106046850999999
In 14.891825 27.37826 10.212013148999999
P 13.4026425 27.37826 8.106046850999999
P 16.381007500000003 25.27224 10.212013148999999
In 11.913459999999999 25.27224 14.212066850999998
P 13.4026425 27.37826 14.212066850999998
P 19.3593725 6.31806 8.106046850999999
In 17.87019 8.42408 2.000026851
In 20.848555 10.530100000000001 4.105993149
In 20.848555 14.742139999999997 4.105993149
In 17.87019 12.63612 2.000026851
P 19.3593725 10.530100000000001 2.000026851
P 19.3593725 14.742139999999997 2.000026851
P 22.337737500000003 12.63612 4.105993149
In 17.87019 8.42408 8.106046850999999
In 20.848555 10.530100000000001 10.212013148999999
In 20.848555 14.742139999999997 10.212013148999999
In 17.87019 12.63612 8.106046850999999
P 19.3593725 10.530100000000001 8.106046850999999
P 19.3593725 14.742139999999997 8.106046850999999
P 22.337737500000003 12.63612 10.212013148999999
In 17.87019 8.42408 14.212066850999998
In 20.848555 14.742139999999997 16.318033148999998
In 17.87019 12.63612 14.212066850999998
P 19.3593725 10.530100000000001 14.212066850999998
P 19.3593725 14.742139999999997 14.212066850999998
In 17.87019 16.848159999999996 2.000026851
In 20.848555 18.95418 4.105993149
In 17.87019 21.060200000000002 2.000026851
P 19.3593725 18.95418 2.000026851
P 22.337737500000003 16.848159999999996 4.105993149
In 17.87019 16.848159999999996 8.106046850999999
In 20.848555 18.95418 10.212013148999999
In 20.848555 23.166219999999996 10.212013148999999
In 17.87019 21.060200000000002 8.106046850999999
P 19.3593725 18.95418 8.106046850999999
P 19.3593725 23.166219999999996 8.106046850999999
P 22.337737500000003 21.060200000000002 10.212013148999999
P 22.337737500000003 16.848159999999996 10.212013148999999
In 17.87019 16.848159999999996 14.212066850999998
In 20.848555 18.95418 16.318033148999998
In 17.87019 21.060200000000002 14.212066850999998
P 19.3593725 18.95418 14.212066850999998
P 19.3593725 23.166219999999996 14.212066850999998
In 17.87019 25.27224 8.106046850999999
In 17.87019 25.27224 14.212066850999998
