46

In 2.978365 8.935095000000002 2.000032948
In 2.978365 5.95673 4.978320792199999
In 0.0 8.935095000000002 4.978320792199999
P 1.4891825 7.4459125 6.467507052
P 1.4891825 10.424277500000002 3.4892192077999997
P 4.4675475 10.424277500000002 6.467507052
P 4.4675475 7.4459125 3.4892192077999997
In 0.0 11.91346 2.000032948
In 2.978365 14.891824999999999 2.000032948
In 2.978365 11.91346 4.978320792199999
In 0.0 14.891824999999999 4.978320792199999
P 1.4891825 13.4026425 6.467507052
P 1.4891825 16.381007500000003 3.4892192077999997
P 4.4675475 16.381007500000003 6.467507052
P 4.4675475 13.4026425 3.4892192077999997
In 0.0 17.870190000000008 2.000032948
In 2.978365 20.848555000000005 2.000032948
In 2.978365 17.870190000000008 4.978320792199999
In 0.0 20.848555000000005 4.978320792199999
P 1.4891825 19.35937250000001 6.467507052
P 1.4891825 22.337737500000003 3.4892192077999997
P 4.4675475 22.337737500000003 6.467507052
P 4.4675475 19.35937250000001 3.4892192077999997
In 5.956729999999999 5.95673 2.000032948
In 8.935095 8.935095000000002 2.000032948
In 8.935095 5.95673 4.978320792199999
In 5.956729999999999 8.935095000000002 4.978320792199999
P 7.4459125 7.4459125 6.467507052
P 7.4459125 10.424277500000002 3.4892192077999997
P 10.4242775 10.424277500000002 6.467507052
P 10.4242775 7.4459125 3.4892192077999997
In 5.956729999999999 11.91346 2.000032948
In 8.935095 14.891824999999999 2.000032948
In 8.935095 11.91346 4.978320792199999
In 5.956729999999999 14.891824999999999 4.978320792199999
P 7.4459125 13.4026425 6.467507052
P 7.4459125 16.381007500000003 3.4892192077999997
P 10.4242775 16.381007500000003 6.467507052
P 10.4242775 13.4026425 3.4892192077999997
In 5.956729999999999 17.870190000000008 2.000032948
In 8.935095 20.848555000000005 2.000032948
In 8.935095 17.870190000000008 4.978320792199999
In 5.956729999999999 20.848555000000005 4.978320792199999
P 7.4459125 19.35937250000001 6.467507052
P 7.4459125 22.337737500000003 3.4892192077999997
P 10.4242775 19.35937250000001 3.4892192077999997
