64

In 2.978365 10.530100000000003 4.105993149
P 4.467547500000001 12.636119999999998 4.105993149
P 4.467547500000001 8.424080000000002 4.105993149
P 4.467547500000001 16.848160000000004 4.105993149
In 8.935095000000002 2.1060200000000004 4.105993149
In 8.935095000000002 6.31806 4.105993149
In 5.95673 4.212040000000001 2.000026851
P 7.4459125 6.31806 2.000026851
P 10.424277500000002 4.212040000000001 4.105993149
In 5.95673 8.424080000000002 2.000026851
In 8.935095000000002 10.530100000000003 4.105993149
In 8.935095000000002 14.742140000000001 4.105993149
In 5.95673 12.636119999999998 2.000026851
P 7.4459125 10.530100000000003 2.000026851
P 7.4459125 14.742140000000001 2.000026851
P 10.424277500000002 12.636119999999998 4.105993149
P 10.424277500000002 8.424080000000002 4.105993149
In 5.95673 16.848160000000004 2.000026851
In 8.935095000000002 18.954180000000004 4.105993149
P 7.4459125 18.954180000000004 2.000026851
P 10.424277500000002 21.060200000000005 4.105993149
P 10.424277500000002 16.848160000000004 4.105993149
In 14.891824999999999 2.1060200000000004 4.105993149
In 14.891824999999999 6.31806 4.105993149
In 11.91346 4.212040000000001 2.000026851
P 13.4026425 2.1060200000000004 2.000026851
P 13.4026425 6.31806 2.000026851
P 16.381007500000003 4.212040000000001 4.105993149
In 11.91346 8.424080000000002 2.000026851
In 14.891824999999999 10.530100000000003 4.105993149
In 14.891824999999999 14.742140000000001 4.105993149
In 11.91346 12.636119999999998 2.000026851
P 13.4026425 10.530100000000003 2.000026851
P 13.4026425 14.742140000000001 2.000026851
P 16.381007500000003 12.636119999999998 4.105993149
P 16.381007500000003 8.424080000000002 4.105993149
In 11.91346 16.848160000000004 2.000026851
In 14.891824999999999 18.954180000000004 4.105993149
In 11.91346 21.060200000000005 2.000026851
P 13.4026425 18.954180000000004 2.000026851
P 16.381007500000003 21.060200000000005 4.105993149
P 16.381007500000003 16.848160000000004 4.105993149
In 20.848555000000005 6.31806 4.105993149
In 17.870190000000008 4.212040000000001 2.000026851
P 19.35937250000001 2.1060200000000004 2.000026851
P 19.35937250000001 6.31806 2.000026851
P 22.337737500000003 4.212040000000001 4.105993149
In 17.870190000000008 8.424080000000002 2.000026851
In 20.848555000000005 10.530100000000003 4.105993149
In 20.848555000000005 14.742140000000001 4.105993149
In 17.870190000000008 12.636119999999998 2.000026851
P 19.35937250000001 10.530100000000003 2.000026851
P 19.35937250000001 14.742140000000001 2.000026851
P 22.337737500000003 12.636119999999998 4.105993149
P 22.337737500000003 8.424080000000002 4.105993149
In 17.870190000000008 16.848160000000004 2.000026851
In 20.848555000000005 18.954180000000004 4.105993149
In 17.870190000000008 21.060200000000005 2.000026851
P 19.35937250000001 18.954180000000004 2.000026851
P 22.337737500000003 16.848160000000004 4.105993149
In 23.82692 8.424080000000002 2.000026851
In 23.82692 12.636119999999998 2.000026851
P 25.3161025 10.530100000000003 2.000026851
In 23.82692 16.848160000000004 2.000026851
