70

P 4.4675475 4.4675475 6.467507052
In 2.978365 8.935095 2.000032948
In 2.978365 5.95673 4.978320792199999
P 1.4891824999999999 10.4242775 3.4892192077999997
P 4.4675475 10.4242775 6.467507052
P 4.4675475 7.4459125 3.4892192077999997
In 2.978365 14.891825 2.000032948
In 2.978365 11.913459999999999 4.978320792199999
P 4.4675475 16.381007500000003 6.467507052
P 4.4675475 13.4026425 3.4892192077999997
In 8.935095 2.978365 2.000032948
In 5.95673 2.978365 4.978320792199999
P 7.4459125 4.4675475 3.4892192077999997
P 10.4242775 4.4675475 6.467507052
P 10.4242775 1.4891824999999999 3.4892192077999997
In 5.95673 5.95673 2.000032948
In 8.935095 8.935095 2.000032948
In 8.935095 5.95673 4.978320792199999
In 5.95673 8.935095 4.978320792199999
P 7.4459125 7.4459125 6.467507052
P 7.4459125 10.4242775 3.4892192077999997
P 10.4242775 10.4242775 6.467507052
P 10.4242775 7.4459125 3.4892192077999997
In 5.95673 11.913459999999999 2.000032948
In 8.935095 14.891825 2.000032948
In 8.935095 11.913459999999999 4.978320792199999
In 5.95673 14.891825 4.978320792199999
P 7.4459125 13.4026425 6.467507052
P 7.4459125 16.381007500000003 3.4892192077999997
P 10.4242775 16.381007500000003 6.467507052
P 10.4242775 13.4026425 3.4892192077999997
In 5.95673 17.87019 2.000032948
In 8.935095 17.87019 4.978320792199999
P 7.4459125 19.3593725 6.467507052
P 10.4242775 19.3593725 3.4892192077999997
In 14.891825 2.978365 2.000032948
In 11.913459999999999 2.978365 4.978320792199999
P 13.4026425 4.4675475 3.4892192077999997
P 16.381007500000003 4.4675475 6.467507052
In 11.913459999999999 5.95673 2.000032948
In 14.891825 8.935095 2.000032948
In 14.891825 5.95673 4.978320792199999
In 11.913459999999999 8.935095 4.978320792199999
P 13.4026425 7.4459125 6.467507052
P 13.4026425 10.4242775 3.4892192077999997
P 16.381007500000003 10.4242775 6.467507052
P 16.381007500000003 7.4459125 3.4892192077999997
In 11.913459999999999 11.913459999999999 2.000032948
In 14.891825 14.891825 2.000032948
In 14.891825 11.913459999999999 4.978320792199999
In 11.913459999999999 14.891825 4.978320792199999
P 13.4026425 13.4026425 6.467507052
P 13.4026425 16.381007500000003 3.4892192077999997
P 16.381007500000003 16.381007500000003 6.467507052
P 16.381007500000003 13.4026425 3.4892192077999997
In 11.913459999999999 17.87019 2.000032948
In 14.891825 17.87019 4.978320792199999
In 11.913459999999999 20.848555 4.978320792199999
P 13.4026425 19.3593725 6.467507052
P 16.381007500000003 19.3593725 3.4892192077999997
In 17.87019 5.95673 2.000032948
In 17.87019 8.935095 4.978320792199999
P 19.3593725 7.4459125 6.467507052
P 19.3593725 10.4242775 3.4892192077999997
In 17.87019 11.913459999999999 2.000032948
In 20.848555 11.913459999999999 4.978320792199999
In 17.87019 14.891825 4.978320792199999
P 19.3593725 13.4026425 6.467507052
P 19.3593725 16.381007500000003 3.4892192077999997
In 17.87019 17.87019 2.000032948
