42

In 6.318060000000001 3.6477336417562065 1.9999938612000001
P 8.424122120400002 4.863669173899221 2.8597861387999997
P 6.318102120400001 1.215935532143014 2.8597861387999997
In 6.318060000000001 3.6477336417562065 6.859773861199999
P 8.424122120400002 4.863669173899221 7.719566138799999
P 6.318102120400001 1.215935532143014 7.719566138799999
In 6.318060000000001 3.6477336417562065 11.719553861199998
P 8.424122120400002 4.863669173899221 12.579346138799998
P 6.318102120400001 1.215935532143014 12.579346138799998
In 8.424080000000002 0.0 1.9999938612000001
In 14.74214 3.6477336417562065 1.9999938612000001
In 12.636119999999998 0.0 1.9999938612000001
In 10.530100000000003 3.6477336417562065 1.9999938612000001
P 10.5301421204 1.215935532143014 2.8597861387999997
P 12.636162120400002 4.863669173899221 2.8597861387999997
P 16.848202120400003 4.863669173899221 2.8597861387999997
P 14.742182120399999 1.215935532143014 2.8597861387999997
In 8.424080000000002 0.0 6.859773861199999
In 14.74214 3.6477336417562065 6.859773861199999
In 12.636119999999998 0.0 6.859773861199999
In 10.530100000000003 3.6477336417562065 6.859773861199999
P 10.5301421204 1.215935532143014 7.719566138799999
P 12.636162120400002 4.863669173899221 7.719566138799999
P 16.848202120400003 4.863669173899221 7.719566138799999
P 14.742182120399999 1.215935532143014 7.719566138799999
In 8.424080000000002 0.0 11.719553861199998
In 14.74214 3.6477336417562065 11.719553861199998
In 12.636119999999998 0.0 11.719553861199998
In 10.530100000000003 3.6477336417562065 11.719553861199998
P 10.5301421204 1.215935532143014 12.579346138799998
P 12.636162120400002 4.863669173899221 12.579346138799998
P 16.848202120400003 4.863669173899221 12.579346138799998
P 14.742182120399999 1.215935532143014 12.579346138799998
In 16.848160000000004 0.0 1.9999938612000001
In 18.954180000000004 3.6477336417562065 1.9999938612000001
P 18.9542221204 1.215935532143014 2.8597861387999997
In 16.848160000000004 0.0 6.859773861199999
In 18.954180000000004 3.6477336417562065 6.859773861199999
P 18.9542221204 1.215935532143014 7.719566138799999
In 16.848160000000004 0.0 11.719553861199998
In 18.954180000000004 3.6477336417562065 11.719553861199998
P 18.9542221204 1.215935532143014 12.579346138799998
