14

P 2.1060621204000003 1.215935532143014 2.8597861387999997
P 4.212082120400001 4.863669173899221 2.8597861387999997
P 6.3181021204 1.215935532143014 2.8597861387999997
In 0.0 0.0 6.859773861199999
In 6.318059999999999 3.6477336417562065 6.859773861199999
In 4.212039999999999 0.0 6.859773861199999
In 2.10602 3.6477336417562065 6.859773861199999
P 2.1060621204000003 1.215935532143014 7.719566138799999
P 4.212082120400001 4.863669173899221 7.719566138799999
P 8.4241221204 4.863669173899221 7.719566138799999
P 6.3181021204 1.215935532143014 7.719566138799999
In 6.318059999999999 3.6477336417562065 11.719553861199998
In 4.212039999999999 0.0 11.719553861199998
In 2.10602 3.6477336417562065 11.719553861199998
