44

In 2.9783649999999997 2.10602 10.212013148999999
In 2.9783649999999997 6.31806 10.212013148999999
In 0.0 4.21204 8.106046850999999
P 1.4891825 2.10602 8.106046850999999
P 1.4891825 6.31806 8.106046850999999
P 4.4675475 4.21204 10.212013148999999
P 4.4675475 0.0 10.212013148999999
In 0.0 0.0 14.212066851
In 2.9783649999999997 2.10602 16.318033149
In 2.9783649999999997 6.31806 16.318033149
In 0.0 4.21204 14.212066851
P 1.4891825 2.10602 14.212066851
P 1.4891825 6.31806 14.212066851
P 4.4675475 4.21204 16.318033149
P 4.4675475 0.0 16.318033149
In 0.0 0.0 20.318086851
In 2.9783649999999997 2.10602 22.424053149
In 2.9783649999999997 6.31806 22.424053149
In 0.0 4.21204 20.318086851
P 1.4891825 2.10602 20.318086851
P 1.4891825 6.31806 20.318086851
P 4.4675475 4.21204 22.424053149
In 0.0 8.424079999999998 8.106046850999999
In 2.9783649999999997 10.530100000000001 10.212013148999999
In 2.9783649999999997 14.742139999999997 10.212013148999999
In 0.0 12.63612 8.106046850999999
P 1.4891825 10.530100000000001 8.106046850999999
P 4.4675475 12.63612 10.212013148999999
P 4.4675475 8.424079999999998 10.212013148999999
In 0.0 8.424079999999998 14.212066851
In 2.9783649999999997 10.530100000000001 16.318033149
In 2.9783649999999997 14.742139999999997 16.318033149
In 0.0 12.63612 14.212066851
P 1.4891825 10.530100000000001 14.212066851
P 1.4891825 14.742139999999997 14.212066851
P 4.4675475 12.63612 16.318033149
P 4.4675475 8.424079999999998 16.318033149
In 0.0 8.424079999999998 20.318086851
In 2.9783649999999997 10.530100000000001 22.424053149
In 0.0 12.63612 20.318086851
P 1.4891825 10.530100000000001 20.318086851
P 1.4891825 14.742139999999997 20.318086851
P 4.4675475 12.63612 22.424053149
P 4.4675475 8.424079999999998 22.424053149
