8

In 2.9783649999999997 2.10602 4.105993149
In 2.9783649999999997 6.31806 4.105993149
P 1.4891825 2.10602 2.000026851
P 4.4675475 4.212039999999999 4.105993149
In 2.9783649999999997 2.10602 10.212013149
In 0.0 4.212039999999999 8.106046851
P 1.4891825 2.10602 8.106046851
P 1.4891825 6.31806 8.106046851
