24

In 6.318060000000001 3.647733641756207 1.9999938612
P 4.212082120400001 4.863669173899221 2.8597861387999997
P 8.4241221204 4.863669173899221 2.8597861387999997
P 6.3181021204 1.215935532143014 2.8597861387999997
In 4.21204 7.295467283512413 1.9999938612
In 10.530100000000001 10.94320092526862 1.9999938612
In 8.42408 7.295467283512413 1.9999938612
In 6.318060000000001 10.94320092526862 1.9999938612
P 6.318102120400001 8.511402815655428 2.8597861387999997
P 8.424122120400002 12.159136457411634 2.8597861387999997
P 12.636162120400002 12.159136457411634 2.8597861387999997
P 10.5301421204 8.511402815655428 2.8597861387999997
In 8.424079999999998 0.0 1.9999938612
In 14.742140000000001 3.647733641756207 1.9999938612
In 12.63612 0.0 1.9999938612
In 10.5301 3.647733641756207 1.9999938612
P 10.530142120399999 1.215935532143014 2.8597861387999997
P 12.636162120400002 4.863669173899221 2.8597861387999997
P 16.8482021204 4.863669173899221 2.8597861387999997
P 14.742182120399997 1.215935532143014 2.8597861387999997
In 12.636119999999998 7.295467283512413 1.9999938612
In 16.84816 7.295467283512413 1.9999938612
In 14.742140000000004 10.94320092526862 1.9999938612
P 14.742182120400003 8.511402815655428 2.8597861387999997
