162

In 2.978365 6.31806 10.212013148999999
P 1.4891825 6.31806 8.106046850999999
P 4.4675475 4.21204 10.212013148999999
In 2.978365 6.31806 16.318033149
In 0.0 4.21204 14.212066851
P 1.4891825 6.31806 14.212066851
P 4.4675475 4.21204 16.318033149
In 2.978365 6.31806 22.424053149
P 1.4891825 6.31806 20.318086851
In 2.978365 10.530100000000001 4.105993148999999
In 2.978365 14.742139999999997 4.105993148999999
P 4.4675475 12.63612 4.105993148999999
P 4.4675475 8.42408 4.105993148999999
In 0.0 8.42408 8.106046850999999
In 2.978365 10.530100000000001 10.212013148999999
In 2.978365 14.742139999999997 10.212013148999999
In 0.0 12.63612 8.106046850999999
P 1.4891825 10.530100000000001 8.106046850999999
P 1.4891825 14.742139999999997 8.106046850999999
P 4.4675475 12.63612 10.212013148999999
P 4.4675475 8.42408 10.212013148999999
In 0.0 8.42408 14.212066851
In 2.978365 10.530100000000001 16.318033149
In 2.978365 14.742139999999997 16.318033149
In 0.0 12.63612 14.212066851
P 1.4891825 10.530100000000001 14.212066851
P 1.4891825 14.742139999999997 14.212066851
P 4.4675475 12.63612 16.318033149
P 4.4675475 8.42408 16.318033149
In 0.0 8.42408 20.318086851
In 2.978365 10.530100000000001 22.424053149
In 2.978365 14.742139999999997 22.424053149
In 0.0 12.63612 20.318086851
P 1.4891825 10.530100000000001 20.318086851
P 1.4891825 14.742139999999997 20.318086851
P 4.4675475 12.63612 22.424053149
P 4.4675475 8.42408 22.424053149
In 0.0 12.63612 26.424106851
P 1.4891825 10.530100000000001 26.424106851
P 1.4891825 14.742139999999997 26.424106851
In 2.978365 18.95418 4.105993148999999
P 4.4675475 21.060200000000002 4.105993148999999
P 4.4675475 16.848159999999996 4.105993148999999
In 0.0 16.848159999999996 8.106046850999999
In 2.978365 18.95418 10.212013148999999
In 2.978365 23.166219999999996 10.212013148999999
In 0.0 21.060200000000002 8.106046850999999
P 1.4891825 18.95418 8.106046850999999
P 1.4891825 23.166219999999996 8.106046850999999
P 4.4675475 21.060200000000002 10.212013148999999
P 4.4675475 16.848159999999996 10.212013148999999
In 0.0 16.848159999999996 14.212066851
In 2.978365 18.95418 16.318033149
In 2.978365 23.166219999999996 16.318033149
In 0.0 21.060200000000002 14.212066851
P 1.4891825 18.95418 14.212066851
P 1.4891825 23.166219999999996 14.212066851
P 4.4675475 21.060200000000002 16.318033149
P 4.4675475 16.848159999999996 16.318033149
In 0.0 16.848159999999996 20.318086851
In 2.978365 18.95418 22.424053149
In 2.978365 23.166219999999996 22.424053149
In 0.0 21.060200000000002 20.318086851
P 1.4891825 18.95418 20.318086851
P 1.4891825 23.166219999999996 20.318086851
P 4.4675475 21.060200000000002 22.424053149
P 4.4675475 16.848159999999996 22.424053149
In 0.0 16.848159999999996 26.424106851
In 0.0 21.060200000000002 26.424106851
P 1.4891825 18.95418 26.424106851
P 4.4675475 16.848159999999996 28.530073149
In 0.0 25.27224 8.106046850999999
In 2.978365 27.37826 10.212013148999999
P 4.4675475 25.27224 10.212013148999999
In 0.0 25.27224 14.212066851
In 2.978365 27.37826 16.318033149
P 1.4891825 27.37826 14.212066851
P 4.4675475 25.27224 16.318033149
In 0.0 25.27224 20.318086851
P 1.4891825 27.37826 20.318086851
P 4.4675475 25.27224 22.424053149
In 8.935095 6.31806 10.212013148999999
P 7.4459125 6.31806 8.106046850999999
In 8.935095 6.31806 16.318033149
In 5.956729999999999 4.21204 14.212066851
P 7.4459125 6.31806 14.212066851
P 10.4242775 4.21204 16.318033149
In 8.935095 6.31806 22.424053149
In 5.956729999999999 4.21204 20.318086851
P 7.4459125 6.31806 20.318086851
In 8.935095 10.530100000000001 4.105993148999999
In 8.935095 14.742139999999997 4.105993148999999
P 10.4242775 12.63612 4.105993148999999
In 5.956729999999999 8.42408 8.106046850999999
In 8.935095 10.530100000000001 10.212013148999999
In 8.935095 14.742139999999997 10.212013148999999
In 5.956729999999999 12.63612 8.106046850999999
P 7.4459125 10.530100000000001 8.106046850999999
P 7.4459125 14.742139999999997 8.106046850999999
P 10.4242775 12.63612 10.212013148999999
P 10.4242775 8.42408 10.212013148999999
In 5.956729999999999 8.42408 14.212066851
In 8.935095 10.530100000000001 16.318033149
In 8.935095 14.742139999999997 16.318033149
In 5.956729999999999 12.63612 14.212066851
P 7.4459125 10.530100000000001 14.212066851
P 7.4459125 14.742139999999997 14.212066851
P 10.4242775 12.63612 16.318033149
P 10.4242775 8.42408 16.318033149
In 5.956729999999999 8.42408 20.318086851
In 8.935095 10.530100000000001 22.424053149
In 8.935095 14.742139999999997 22.424053149
In 5.956729999999999 12.63612 20.318086851
P 7.4459125 10.530100000000001 20.318086851
P 7.4459125 14.742139999999997 20.318086851
P 10.4242775 12.63612 22.424053149
P 10.4242775 8.42408 22.424053149
In 5.956729999999999 8.42408 26.424106851
In 5.956729999999999 12.63612 26.424106851
P 7.4459125 10.530100000000001 26.424106851
P 7.4459125 14.742139999999997 26.424106851
In 5.956729999999999 16.848159999999996 2.0000268509999994
In 8.935095 18.95418 4.105993148999999
P 10.4242775 21.060200000000002 4.105993148999999
P 10.4242775 16.848159999999996 4.105993148999999
In 5.956729999999999 16.848159999999996 8.106046850999999
In 8.935095 18.95418 10.212013148999999
In 8.935095 23.166219999999996 10.212013148999999
In 5.956729999999999 21.060200000000002 8.106046850999999
P 7.4459125 18.95418 8.106046850999999
P 7.4459125 23.166219999999996 8.106046850999999
P 10.4242775 21.060200000000002 10.212013148999999
P 10.4242775 16.848159999999996 10.212013148999999
In 5.956729999999999 16.848159999999996 14.212066851
In 8.935095 18.95418 16.318033149
In 8.935095 23.166219999999996 16.318033149
In 5.956729999999999 21.060200000000002 14.212066851
P 7.4459125 18.95418 14.212066851
P 7.4459125 23.166219999999996 14.212066851
P 10.4242775 21.060200000000002 16.318033149
P 10.4242775 16.848159999999996 16.318033149
In 5.956729999999999 16.848159999999996 20.318086851
In 8.935095 18.95418 22.424053149
In 8.935095 23.166219999999996 22.424053149
In 5.956729999999999 21.060200000000002 20.318086851
P 7.4459125 18.95418 20.318086851
P 7.4459125 23.166219999999996 20.318086851
P 10.4242775 21.060200000000002 22.424053149
P 10.4242775 16.848159999999996 22.424053149
In 5.956729999999999 16.848159999999996 26.424106851
In 5.956729999999999 21.060200000000002 26.424106851
P 7.4459125 18.95418 26.424106851
In 5.956729999999999 25.27224 8.106046850999999
In 8.935095 27.37826 10.212013148999999
P 10.4242775 25.27224 10.212013148999999
In 5.956729999999999 25.27224 14.212066851
In 8.935095 27.37826 16.318033149
P 7.4459125 27.37826 14.212066851
P 10.4242775 25.27224 16.318033149
In 5.956729999999999 25.27224 20.318086851
P 7.4459125 27.37826 20.318086851
P 10.4242775 25.27224 22.424053149
