144

In 10.530100000000001 10.943200925268624 1.9999938612000001
In 6.318060000000001 10.943200925268624 1.9999938612000001
P 8.424122120400002 12.159136457411636 2.8597861387999997
P 12.636162120400002 12.159136457411636 2.8597861387999997
P 10.5301421204 8.51140281565543 2.8597861387999997
In 10.530100000000001 10.943200925268624 6.859773861199999
In 8.42408 7.295467283512416 6.859773861199999
In 6.318060000000001 10.943200925268624 6.859773861199999
P 6.318102120400001 8.51140281565543 7.719566138799999
P 8.424122120400002 12.159136457411636 7.719566138799999
P 12.636162120400002 12.159136457411636 7.719566138799999
P 10.5301421204 8.51140281565543 7.719566138799999
In 10.530100000000001 10.943200925268624 11.719553861199998
In 8.42408 7.295467283512416 11.719553861199998
In 6.318060000000001 10.943200925268624 11.719553861199998
P 8.424122120400002 12.159136457411636 12.579346138799998
P 12.636162120400002 12.159136457411636 12.579346138799998
P 10.5301421204 8.51140281565543 12.579346138799998
In 8.424080000000002 14.590934567024831 1.9999938612000001
In 14.742140000000001 18.238668208781032 1.9999938612000001
In 12.636120000000002 14.590934567024831 1.9999938612000001
In 10.530100000000001 18.238668208781032 1.9999938612000001
P 10.530142120400003 15.806870099167844 2.8597861387999997
P 12.636162120400002 19.45460374092405 2.8597861387999997
P 16.848202120400003 19.45460374092405 2.8597861387999997
P 14.742182120400003 15.806870099167844 2.8597861387999997
In 8.424080000000002 14.590934567024831 6.859773861199999
In 14.742140000000001 18.238668208781032 6.859773861199999
In 12.636120000000002 14.590934567024831 6.859773861199999
In 10.530100000000001 18.238668208781032 6.859773861199999
P 10.530142120400003 15.806870099167844 7.719566138799999
P 12.636162120400002 19.45460374092405 7.719566138799999
P 16.848202120400003 19.45460374092405 7.719566138799999
P 14.742182120400003 15.806870099167844 7.719566138799999
In 8.424080000000002 14.590934567024831 11.719553861199998
In 14.742140000000001 18.238668208781032 11.719553861199998
In 12.636120000000002 14.590934567024831 11.719553861199998
In 10.530100000000001 18.238668208781032 11.719553861199998
P 10.530142120400003 15.806870099167844 12.579346138799998
P 12.636162120400002 19.45460374092405 12.579346138799998
P 16.848202120400003 19.45460374092405 12.579346138799998
P 14.742182120400003 15.806870099167844 12.579346138799998
In 12.636120000000005 21.88640185053725 1.9999938612000001
In 18.954180000000008 25.534135492293455 1.9999938612000001
In 16.848160000000007 21.88640185053725 1.9999938612000001
In 14.742140000000006 25.534135492293455 1.9999938612000001
P 14.742182120400006 23.102337382680265 2.8597861387999997
P 16.848202120400007 26.75007102443647 2.8597861387999997
P 21.060242120400005 26.75007102443647 2.8597861387999997
P 18.954222120400004 23.102337382680265 2.8597861387999997
In 12.636120000000005 21.88640185053725 6.859773861199999
In 18.954180000000008 25.534135492293455 6.859773861199999
In 16.848160000000007 21.88640185053725 6.859773861199999
In 14.742140000000006 25.534135492293455 6.859773861199999
P 14.742182120400006 23.102337382680265 7.719566138799999
P 16.848202120400007 26.75007102443647 7.719566138799999
P 21.060242120400005 26.75007102443647 7.719566138799999
P 18.954222120400004 23.102337382680265 7.719566138799999
In 12.636120000000005 21.88640185053725 11.719553861199998
In 18.954180000000008 25.534135492293455 11.719553861199998
In 16.848160000000007 21.88640185053725 11.719553861199998
In 14.742140000000006 25.534135492293455 11.719553861199998
P 14.742182120400006 23.102337382680265 12.579346138799998
P 16.848202120400007 26.75007102443647 12.579346138799998
P 21.060242120400005 26.75007102443647 12.579346138799998
P 18.954222120400004 23.102337382680265 12.579346138799998
In 16.848160000000004 29.181869134049663 1.9999938612000001
In 16.848160000000004 29.181869134049663 6.859773861199999
In 21.060200000000002 29.181869134049663 6.859773861199999
P 18.954222120400004 30.397804666192677 7.719566138799999
In 16.848160000000004 29.181869134049663 11.719553861199998
In 21.060200000000002 29.181869134049663 11.719553861199998
P 12.636162120400003 4.863669173899222 2.8597861387999997
P 16.8482021204 4.863669173899222 2.8597861387999997
In 14.742140000000001 3.6477336417562074 6.859773861199999
P 12.636162120400003 4.863669173899222 7.719566138799999
P 16.8482021204 4.863669173899222 7.719566138799999
P 16.8482021204 4.863669173899222 12.579346138799998
In 12.63612 7.295467283512416 1.9999938612000001
In 18.95418 10.943200925268624 1.9999938612000001
In 16.84816 7.295467283512416 1.9999938612000001
In 14.742140000000001 10.943200925268624 1.9999938612000001
P 14.742182120400004 8.51140281565543 2.8597861387999997
P 16.848202120400003 12.159136457411636 2.8597861387999997
P 21.0602421204 12.159136457411636 2.8597861387999997
P 18.9542221204 8.51140281565543 2.8597861387999997
In 12.63612 7.295467283512416 6.859773861199999
In 18.95418 10.943200925268624 6.859773861199999
In 16.84816 7.295467283512416 6.859773861199999
In 14.742140000000001 10.943200925268624 6.859773861199999
P 14.742182120400004 8.51140281565543 7.719566138799999
P 16.848202120400003 12.159136457411636 7.719566138799999
P 21.0602421204 12.159136457411636 7.719566138799999
P 18.9542221204 8.51140281565543 7.719566138799999
In 12.63612 7.295467283512416 11.719553861199998
In 18.95418 10.943200925268624 11.719553861199998
In 16.84816 7.295467283512416 11.719553861199998
In 14.742140000000001 10.943200925268624 11.719553861199998
P 14.742182120400004 8.51140281565543 12.579346138799998
P 16.848202120400003 12.159136457411636 12.579346138799998
P 21.0602421204 12.159136457411636 12.579346138799998
P 18.9542221204 8.51140281565543 12.579346138799998
In 16.848160000000004 14.590934567024831 1.9999938612000001
In 23.166220000000003 18.238668208781032 1.9999938612000001
In 21.060200000000002 14.590934567024831 1.9999938612000001
In 18.954180000000004 18.238668208781032 1.9999938612000001
P 18.954222120400004 15.806870099167844 2.8597861387999997
P 21.060242120400005 19.45460374092405 2.8597861387999997
P 25.272282120400003 19.45460374092405 2.8597861387999997
P 23.166262120400003 15.806870099167844 2.8597861387999997
In 16.848160000000004 14.590934567024831 6.859773861199999
In 23.166220000000003 18.238668208781032 6.859773861199999
In 21.060200000000002 14.590934567024831 6.859773861199999
In 18.954180000000004 18.238668208781032 6.859773861199999
P 18.954222120400004 15.806870099167844 7.719566138799999
P 21.060242120400005 19.45460374092405 7.719566138799999
P 25.272282120400003 19.45460374092405 7.719566138799999
P 23.166262120400003 15.806870099167844 7.719566138799999
In 16.848160000000004 14.590934567024831 11.719553861199998
In 23.166220000000003 18.238668208781032 11.719553861199998
In 21.060200000000002 14.590934567024831 11.719553861199998
In 18.954180000000004 18.238668208781032 11.719553861199998
P 18.954222120400004 15.806870099167844 12.579346138799998
P 21.060242120400005 19.45460374092405 12.579346138799998
P 25.272282120400003 19.45460374092405 12.579346138799998
P 23.166262120400003 15.806870099167844 12.579346138799998
In 21.060200000000005 21.88640185053725 1.9999938612000001
In 25.272240000000004 21.88640185053725 1.9999938612000001
In 23.166220000000003 25.534135492293455 1.9999938612000001
P 23.166262120400006 23.102337382680265 2.8597861387999997
P 25.272282120400007 26.75007102443647 2.8597861387999997
P 27.378302120400004 23.102337382680265 2.8597861387999997
In 21.060200000000005 21.88640185053725 6.859773861199999
In 27.378260000000004 25.534135492293455 6.859773861199999
In 25.272240000000004 21.88640185053725 6.859773861199999
In 23.166220000000003 25.534135492293455 6.859773861199999
P 23.166262120400006 23.102337382680265 7.719566138799999
P 25.272282120400007 26.75007102443647 7.719566138799999
P 27.378302120400004 23.102337382680265 7.719566138799999
In 21.060200000000005 21.88640185053725 11.719553861199998
In 25.272240000000004 21.88640185053725 11.719553861199998
In 23.166220000000003 25.534135492293455 11.719553861199998
P 23.166262120400006 23.102337382680265 12.579346138799998
P 27.378302120400004 23.102337382680265 12.579346138799998
