16

In 0.0 2.978365 4.978320792199999
P 1.4891825 1.4891825 6.467507052
P 1.4891825 4.4675475 3.4892192077999997
P 4.4675475 4.4675475 6.467507052
In 2.9783649999999997 2.978365 10.467572947999999
In 0.0 2.978365 13.445860792199998
P 1.4891825 4.4675475 11.9567592078
P 4.4675475 1.4891825 11.9567592078
In 2.9783649999999997 5.956729999999999 4.978320792199999
In 0.0 8.935095 4.978320792199999
P 1.4891825 7.4459125 6.467507052
P 4.4675475 7.4459125 3.4892192077999997
In 0.0 5.956729999999999 10.467572947999999
In 2.9783649999999997 8.935095 10.467572947999999
In 2.9783649999999997 5.956729999999999 13.445860792199998
P 4.4675475 7.4459125 11.9567592078
