108

In 2.978365 6.31806 4.105993149
In 2.978365 10.530100000000001 4.105993149
In 2.978365 14.742139999999997 4.105993149
In 0.0 12.63612 2.000026851
P 1.4891825 10.530100000000001 2.000026851
P 1.4891825 14.742139999999997 2.000026851
P 4.4675475 12.63612 4.105993149
P 4.4675475 8.42408 4.105993149
In 0.0 8.42408 8.106046851
In 2.978365 10.530100000000001 10.212013149
In 2.978365 14.742139999999997 10.212013149
In 0.0 12.63612 8.106046851
P 1.4891825 10.530100000000001 8.106046851
P 1.4891825 14.742139999999997 8.106046851
P 4.4675475 12.63612 10.212013149
P 4.4675475 8.42408 10.212013149
In 0.0 16.848159999999996 2.000026851
In 2.978365 18.95418 4.105993149
In 2.978365 23.166219999999996 4.105993149
In 0.0 21.060200000000002 2.000026851
P 1.4891825 18.95418 2.000026851
P 1.4891825 23.166219999999996 2.000026851
P 4.4675475 21.060200000000002 4.105993149
P 4.4675475 16.848159999999996 4.105993149
In 0.0 16.848159999999996 8.106046851
In 2.978365 18.95418 10.212013149
In 2.978365 23.166219999999996 10.212013149
In 0.0 21.060200000000002 8.106046851
P 1.4891825 18.95418 8.106046851
P 1.4891825 23.166219999999996 8.106046851
P 4.4675475 21.060200000000002 10.212013149
P 4.4675475 16.848159999999996 10.212013149
P 4.4675475 25.27224 4.105993149
P 4.4675475 25.27224 10.212013149
In 8.935094999999999 6.31806 4.105993149
P 7.4459125 6.31806 2.000026851
In 8.935094999999999 6.31806 10.212013149
P 7.4459125 6.31806 8.106046851
In 5.95673 8.42408 2.000026851
In 8.935094999999999 10.530100000000001 4.105993149
In 8.935094999999999 14.742139999999997 4.105993149
In 5.95673 12.63612 2.000026851
P 7.4459125 10.530100000000001 2.000026851
P 7.4459125 14.742139999999997 2.000026851
P 10.4242775 12.63612 4.105993149
P 10.4242775 8.42408 4.105993149
In 5.95673 8.42408 8.106046851
In 8.935094999999999 10.530100000000001 10.212013149
In 8.935094999999999 14.742139999999997 10.212013149
In 5.95673 12.63612 8.106046851
P 7.4459125 10.530100000000001 8.106046851
P 7.4459125 14.742139999999997 8.106046851
P 10.4242775 12.63612 10.212013149
P 10.4242775 8.42408 10.212013149
In 5.95673 16.848159999999996 2.000026851
In 8.935094999999999 18.95418 4.105993149
In 8.935094999999999 23.166219999999996 4.105993149
In 5.95673 21.060200000000002 2.000026851
P 7.4459125 18.95418 2.000026851
P 7.4459125 23.166219999999996 2.000026851
P 10.4242775 21.060200000000002 4.105993149
P 10.4242775 16.848159999999996 4.105993149
In 5.95673 16.848159999999996 8.106046851
In 8.935094999999999 18.95418 10.212013149
In 8.935094999999999 23.166219999999996 10.212013149
In 5.95673 21.060200000000002 8.106046851
P 7.4459125 18.95418 8.106046851
P 7.4459125 23.166219999999996 8.106046851
P 10.4242775 21.060200000000002 10.212013149
P 10.4242775 16.848159999999996 10.212013149
In 5.95673 25.27224 2.000026851
P 10.4242775 25.27224 4.105993149
In 5.95673 25.27224 8.106046851
P 10.4242775 25.27224 10.212013149
P 13.4026425 6.31806 8.106046851
In 11.91346 8.42408 2.000026851
In 14.891825 10.530100000000001 4.105993149
In 14.891825 14.742139999999997 4.105993149
In 11.91346 12.63612 2.000026851
P 13.4026425 10.530100000000001 2.000026851
P 13.4026425 14.742139999999997 2.000026851
P 16.381007500000003 12.63612 4.105993149
P 16.381007500000003 8.42408 4.105993149
In 11.91346 8.42408 8.106046851
In 14.891825 10.530100000000001 10.212013149
In 14.891825 14.742139999999997 10.212013149
In 11.91346 12.63612 8.106046851
P 13.4026425 10.530100000000001 8.106046851
P 13.4026425 14.742139999999997 8.106046851
P 16.381007500000003 12.63612 10.212013149
In 11.91346 16.848159999999996 2.000026851
In 14.891825 18.95418 4.105993149
In 14.891825 23.166219999999996 4.105993149
In 11.91346 21.060200000000002 2.000026851
P 13.4026425 18.95418 2.000026851
P 13.4026425 23.166219999999996 2.000026851
P 16.381007500000003 21.060200000000002 4.105993149
P 16.381007500000003 16.848159999999996 4.105993149
In 11.91346 16.848159999999996 8.106046851
In 14.891825 18.95418 10.212013149
In 14.891825 23.166219999999996 10.212013149
In 11.91346 21.060200000000002 8.106046851
P 13.4026425 18.95418 8.106046851
P 13.4026425 23.166219999999996 8.106046851
P 16.381007500000003 21.060200000000002 10.212013149
P 16.381007500000003 16.848159999999996 10.212013149
In 11.91346 25.27224 2.000026851
In 11.91346 25.27224 8.106046851
