12

P 1.4891825 4.4675475 3.4892192077999997
P 4.4675475 4.4675475 6.467507052
In 0.0 5.95673 2.000032948
In 2.9783649999999997 8.935094999999999 2.000032948
In 2.9783649999999997 5.95673 4.978320792199999
In 0.0 8.935094999999999 4.978320792199999
P 1.4891825 7.4459125 6.467507052
P 1.4891825 10.4242775 3.4892192077999997
P 4.4675475 10.4242775 6.467507052
P 4.4675475 7.4459125 3.4892192077999997
In 0.0 11.91346 2.000032948
In 2.9783649999999997 11.91346 4.978320792199999
