26

In 2.978365 2.978365 2.000032948
P 1.4891825 4.4675475 3.4892192077999997
P 4.4675475 4.4675475 6.467507052
In 0.0 5.95673 2.000032948
In 2.978365 8.935094999999999 2.000032948
In 2.978365 5.95673 4.978320792199999
In 0.0 8.935094999999999 4.978320792199999
P 1.4891825 7.4459125 6.467507052
P 1.4891825 10.4242775 3.4892192077999997
P 4.4675475 10.4242775 6.467507052
P 4.4675475 7.4459125 3.4892192077999997
In 2.978365 11.91346 4.978320792199999
P 4.4675475 13.4026425 3.4892192077999997
In 5.956729999999999 2.978365 4.978320792199999
P 7.4459125 4.4675475 3.4892192077999997
In 5.956729999999999 5.95673 2.000032948
In 8.935095 8.935094999999999 2.000032948
In 8.935095 5.95673 4.978320792199999
In 5.956729999999999 8.935094999999999 4.978320792199999
P 7.4459125 7.4459125 6.467507052
P 7.4459125 10.4242775 3.4892192077999997
P 10.4242775 10.4242775 6.467507052
P 10.4242775 7.4459125 3.4892192077999997
In 5.956729999999999 11.91346 2.000032948
In 8.935095 11.91346 4.978320792199999
P 7.4459125 13.4026425 6.467507052
