46

In 8.935095000000002 2.10602 4.105993149
In 8.935095000000002 6.31806 4.105993149
In 5.95673 4.212039999999999 2.000026851
P 7.4459125 2.10602 2.000026851
P 7.4459125 6.31806 2.000026851
P 10.424277500000002 4.212039999999999 4.105993149
P 10.424277500000002 0.0 4.105993149
In 5.95673 0.0 8.106046851
In 8.935095000000002 2.10602 10.212013149
In 8.935095000000002 6.31806 10.212013149
In 5.95673 4.212039999999999 8.106046851
P 7.4459125 2.10602 8.106046851
P 7.4459125 6.31806 8.106046851
P 10.424277500000002 4.212039999999999 10.212013149
P 10.424277500000002 0.0 10.212013149
In 11.91346 0.0 2.000026851
In 14.891824999999999 2.10602 4.105993149
In 14.891824999999999 6.31806 4.105993149
In 11.91346 4.212039999999999 2.000026851
P 13.4026425 2.10602 2.000026851
P 13.4026425 6.31806 2.000026851
P 16.381007500000003 4.212039999999999 4.105993149
P 16.381007500000003 0.0 4.105993149
In 11.91346 0.0 8.106046851
In 14.891824999999999 2.10602 10.212013149
In 14.891824999999999 6.31806 10.212013149
In 11.91346 4.212039999999999 8.106046851
P 13.4026425 2.10602 8.106046851
P 13.4026425 6.31806 8.106046851
P 16.381007500000003 4.212039999999999 10.212013149
P 16.381007500000003 0.0 10.212013149
In 17.870190000000008 0.0 2.000026851
In 20.848555000000005 2.10602 4.105993149
In 20.848555000000005 6.31806 4.105993149
In 17.870190000000008 4.212039999999999 2.000026851
P 19.35937250000001 2.10602 2.000026851
P 19.35937250000001 6.31806 2.000026851
P 22.337737500000003 4.212039999999999 4.105993149
P 22.337737500000003 0.0 4.105993149
In 17.870190000000008 0.0 8.106046851
In 20.848555000000005 2.10602 10.212013149
In 20.848555000000005 6.31806 10.212013149
In 17.870190000000008 4.212039999999999 8.106046851
P 19.35937250000001 2.10602 8.106046851
P 19.35937250000001 6.31806 8.106046851
P 22.337737500000003 4.212039999999999 10.212013149
