42

In 6.31806 3.647733641756207 1.9999938612000001
P 4.212082120400001 4.863669173899221 2.8597861387999997
P 8.4241221204 4.863669173899221 2.8597861387999997
In 6.31806 3.647733641756207 6.859773861199999
P 4.212082120400001 4.863669173899221 7.719566138799999
P 8.4241221204 4.863669173899221 7.719566138799999
In 6.31806 3.647733641756207 11.719553861199998
P 4.212082120400001 4.863669173899221 12.579346138799998
P 8.4241221204 4.863669173899221 12.579346138799998
In 4.21204 7.295467283512413 1.9999938612000001
In 10.5301 10.943200925268618 1.9999938612000001
In 8.42408 7.295467283512413 1.9999938612000001
In 6.31806 10.943200925268618 1.9999938612000001
P 6.318102120400001 8.511402815655426 2.8597861387999997
P 8.4241221204 12.159136457411634 2.8597861387999997
P 12.6361621204 12.159136457411634 2.8597861387999997
P 10.5301421204 8.511402815655426 2.8597861387999997
In 4.21204 7.295467283512413 6.859773861199999
In 10.5301 10.943200925268618 6.859773861199999
In 8.42408 7.295467283512413 6.859773861199999
In 6.31806 10.943200925268618 6.859773861199999
P 6.318102120400001 8.511402815655426 7.719566138799999
P 8.4241221204 12.159136457411634 7.719566138799999
P 12.6361621204 12.159136457411634 7.719566138799999
P 10.5301421204 8.511402815655426 7.719566138799999
In 4.21204 7.295467283512413 11.719553861199998
In 10.5301 10.943200925268618 11.719553861199998
In 8.42408 7.295467283512413 11.719553861199998
In 6.31806 10.943200925268618 11.719553861199998
P 6.318102120400001 8.511402815655426 12.579346138799998
P 8.4241221204 12.159136457411634 12.579346138799998
P 12.6361621204 12.159136457411634 12.579346138799998
P 10.5301421204 8.511402815655426 12.579346138799998
In 8.42408 14.590934567024826 1.9999938612000001
In 12.63612 14.590934567024826 1.9999938612000001
P 10.5301421204 15.80687009916784 2.8597861387999997
In 8.42408 14.590934567024826 6.859773861199999
In 12.63612 14.590934567024826 6.859773861199999
P 10.5301421204 15.80687009916784 7.719566138799999
In 8.42408 14.590934567024826 11.719553861199998
In 12.63612 14.590934567024826 11.719553861199998
P 10.5301421204 15.80687009916784 12.579346138799998
