70

P 8.4241221204 4.863669173899221 7.719566138799999
In 14.742140000000001 3.6477336417562065 1.9999938612000001
In 12.63612 0.0 1.9999938612000001
In 10.530100000000003 3.6477336417562065 1.9999938612000001
P 10.530142120400003 1.215935532143014 2.8597861387999997
P 12.636162120400002 4.863669173899221 2.8597861387999997
P 16.848202120400003 4.863669173899221 2.8597861387999997
P 14.742182120400003 1.215935532143014 2.8597861387999997
In 8.424080000000002 0.0 6.859773861199999
In 14.742140000000001 3.6477336417562065 6.859773861199999
In 12.63612 0.0 6.859773861199999
In 10.530100000000003 3.6477336417562065 6.859773861199999
P 10.530142120400003 1.215935532143014 7.719566138799999
P 12.636162120400002 4.863669173899221 7.719566138799999
P 16.848202120400003 4.863669173899221 7.719566138799999
P 14.742182120400003 1.215935532143014 7.719566138799999
In 14.742140000000001 3.6477336417562065 11.719553861199998
In 12.63612 0.0 11.719553861199998
In 10.530100000000003 3.6477336417562065 11.719553861199998
P 10.530142120400003 1.215935532143014 12.579346138799998
P 12.636162120400002 4.863669173899221 12.579346138799998
P 16.848202120400003 4.863669173899221 12.579346138799998
P 14.742182120400003 1.215935532143014 12.579346138799998
In 16.848160000000004 0.0 1.9999938612000001
In 23.16622 3.6477336417562065 1.9999938612000001
In 21.0602 0.0 1.9999938612000001
In 18.954180000000004 3.6477336417562065 1.9999938612000001
P 18.954222120400004 1.215935532143014 2.8597861387999997
P 21.060242120400005 4.863669173899221 2.8597861387999997
P 25.2722821204 4.863669173899221 2.8597861387999997
P 23.1662621204 1.215935532143014 2.8597861387999997
In 16.848160000000004 0.0 6.859773861199999
In 23.16622 3.6477336417562065 6.859773861199999
In 21.0602 0.0 6.859773861199999
In 18.954180000000004 3.6477336417562065 6.859773861199999
P 18.954222120400004 1.215935532143014 7.719566138799999
P 21.060242120400005 4.863669173899221 7.719566138799999
P 25.2722821204 4.863669173899221 7.719566138799999
P 23.1662621204 1.215935532143014 7.719566138799999
In 16.848160000000004 0.0 11.719553861199998
In 23.16622 3.6477336417562065 11.719553861199998
In 21.0602 0.0 11.719553861199998
In 18.954180000000004 3.6477336417562065 11.719553861199998
P 18.954222120400004 1.215935532143014 12.579346138799998
P 21.060242120400005 4.863669173899221 12.579346138799998
P 25.2722821204 4.863669173899221 12.579346138799998
P 23.1662621204 1.215935532143014 12.579346138799998
In 25.272240000000007 0.0 1.9999938612000001
In 31.590300000000006 3.6477336417562065 1.9999938612000001
In 29.484280000000005 0.0 1.9999938612000001
In 27.378260000000008 3.6477336417562065 1.9999938612000001
P 27.378302120400008 1.215935532143014 2.8597861387999997
P 29.48432212040001 4.863669173899221 2.8597861387999997
P 31.590342120400003 1.215935532143014 2.8597861387999997
In 25.272240000000007 0.0 6.859773861199999
In 31.590300000000006 3.6477336417562065 6.859773861199999
In 29.484280000000005 0.0 6.859773861199999
In 27.378260000000008 3.6477336417562065 6.859773861199999
P 27.378302120400008 1.215935532143014 7.719566138799999
P 29.48432212040001 4.863669173899221 7.719566138799999
P 33.69636212040001 4.863669173899221 7.719566138799999
P 31.590342120400003 1.215935532143014 7.719566138799999
In 25.272240000000007 0.0 11.719553861199998
In 31.590300000000006 3.6477336417562065 11.719553861199998
In 29.484280000000005 0.0 11.719553861199998
In 27.378260000000008 3.6477336417562065 11.719553861199998
P 27.378302120400008 1.215935532143014 12.579346138799998
P 29.48432212040001 4.863669173899221 12.579346138799998
P 31.590342120400003 1.215935532143014 12.579346138799998
In 33.69632000000001 0.0 6.859773861199999
