30

In 6.31806 3.6477336417562065 1.9999938612000001
P 4.212082120400001 4.863669173899221 2.8597861387999997
P 8.4241221204 4.863669173899221 2.8597861387999997
P 6.3181021204 1.215935532143014 2.8597861387999997
In 6.31806 3.6477336417562065 6.859773861199999
In 4.21204 0.0 6.859773861199999
In 2.10602 3.6477336417562065 6.859773861199999
P 2.1060621204000003 1.215935532143014 7.719566138799999
P 4.212082120400001 4.863669173899221 7.719566138799999
P 8.4241221204 4.863669173899221 7.719566138799999
P 6.3181021204 1.215935532143014 7.719566138799999
In 6.31806 3.6477336417562065 11.719553861199998
In 4.21204 0.0 11.719553861199998
P 8.4241221204 4.863669173899221 12.579346138799998
P 6.3181021204 1.215935532143014 12.579346138799998
In 8.424079999999998 0.0 1.9999938612000001
In 10.5301 3.6477336417562065 1.9999938612000001
P 10.530142120399999 1.215935532143014 2.8597861387999997
P 12.636162120400002 4.863669173899221 2.8597861387999997
In 8.424079999999998 0.0 6.859773861199999
In 14.742140000000001 3.6477336417562065 6.859773861199999
In 12.63612 0.0 6.859773861199999
In 10.5301 3.6477336417562065 6.859773861199999
P 10.530142120399999 1.215935532143014 7.719566138799999
P 12.636162120400002 4.863669173899221 7.719566138799999
P 14.742182120399997 1.215935532143014 7.719566138799999
In 8.424079999999998 0.0 11.719553861199998
In 12.63612 0.0 11.719553861199998
In 10.5301 3.6477336417562065 11.719553861199998
P 10.530142120399999 1.215935532143014 12.579346138799998
