112

In 2.9783649999999997 6.318059999999999 10.212013148999999
In 2.9783649999999997 6.318059999999999 16.318033149
P 1.4891825 6.318059999999999 14.212066851
P 1.4891825 6.318059999999999 20.318086851
In 2.9783649999999997 10.530100000000001 4.105993148999999
In 2.9783649999999997 14.742140000000003 4.105993148999999
P 1.4891825 14.742140000000003 2.0000268509999994
P 4.4675475 12.63612 4.105993148999999
In 0.0 8.424080000000002 8.106046850999999
In 2.9783649999999997 10.530100000000001 10.212013148999999
In 2.9783649999999997 14.742140000000003 10.212013148999999
In 0.0 12.63612 8.106046850999999
P 1.4891825 10.530100000000001 8.106046850999999
P 1.4891825 14.742140000000003 8.106046850999999
P 4.4675475 12.63612 10.212013148999999
P 4.4675475 8.424080000000002 10.212013148999999
In 0.0 8.424080000000002 14.212066851
In 2.9783649999999997 10.530100000000001 16.318033149
In 2.9783649999999997 14.742140000000003 16.318033149
In 0.0 12.63612 14.212066851
P 1.4891825 10.530100000000001 14.212066851
P 1.4891825 14.742140000000003 14.212066851
P 4.4675475 12.63612 16.318033149
P 4.4675475 8.424080000000002 16.318033149
In 0.0 8.424080000000002 20.318086851
In 2.9783649999999997 10.530100000000001 22.424053149
In 2.9783649999999997 14.742140000000003 22.424053149
In 0.0 12.63612 20.318086851
P 1.4891825 10.530100000000001 20.318086851
P 1.4891825 14.742140000000003 20.318086851
P 4.4675475 12.63612 22.424053149
P 4.4675475 8.424080000000002 22.424053149
In 2.9783649999999997 14.742140000000003 28.530073149
In 0.0 12.63612 26.424106851
P 1.4891825 10.530100000000001 26.424106851
P 1.4891825 14.742140000000003 26.424106851
In 0.0 16.848160000000004 2.0000268509999994
In 2.9783649999999997 18.954180000000004 4.105993148999999
In 2.9783649999999997 23.166220000000003 4.105993148999999
In 0.0 21.0602 2.0000268509999994
P 1.4891825 18.954180000000004 2.0000268509999994
P 1.4891825 23.166220000000003 2.0000268509999994
P 4.4675475 21.0602 4.105993148999999
P 4.4675475 16.848160000000004 4.105993148999999
In 0.0 16.848160000000004 8.106046850999999
In 2.9783649999999997 18.954180000000004 10.212013148999999
In 2.9783649999999997 23.166220000000003 10.212013148999999
In 0.0 21.0602 8.106046850999999
P 1.4891825 18.954180000000004 8.106046850999999
P 1.4891825 23.166220000000003 8.106046850999999
P 4.4675475 21.0602 10.212013148999999
P 4.4675475 16.848160000000004 10.212013148999999
In 0.0 16.848160000000004 14.212066851
In 2.9783649999999997 18.954180000000004 16.318033149
In 2.9783649999999997 23.166220000000003 16.318033149
In 0.0 21.0602 14.212066851
P 1.4891825 18.954180000000004 14.212066851
P 1.4891825 23.166220000000003 14.212066851
P 4.4675475 21.0602 16.318033149
P 4.4675475 16.848160000000004 16.318033149
In 0.0 16.848160000000004 20.318086851
In 2.9783649999999997 18.954180000000004 22.424053149
In 2.9783649999999997 23.166220000000003 22.424053149
In 0.0 21.0602 20.318086851
P 1.4891825 18.954180000000004 20.318086851
P 1.4891825 23.166220000000003 20.318086851
P 4.4675475 21.0602 22.424053149
P 4.4675475 16.848160000000004 22.424053149
In 0.0 16.848160000000004 26.424106851
In 2.9783649999999997 18.954180000000004 28.530073149
In 2.9783649999999997 23.166220000000003 28.530073149
In 0.0 21.0602 26.424106851
P 1.4891825 18.954180000000004 26.424106851
P 1.4891825 23.166220000000003 26.424106851
P 4.4675475 21.0602 28.530073149
P 4.4675475 16.848160000000004 28.530073149
In 0.0 25.272240000000007 2.0000268509999994
In 2.9783649999999997 27.378260000000008 4.105993148999999
P 4.4675475 29.484280000000005 4.105993148999999
P 4.4675475 25.272240000000007 4.105993148999999
In 0.0 25.272240000000007 8.106046850999999
In 2.9783649999999997 27.378260000000008 10.212013148999999
In 2.9783649999999997 31.590300000000003 10.212013148999999
In 0.0 29.484280000000005 8.106046850999999
P 1.4891825 27.378260000000008 8.106046850999999
P 1.4891825 31.590300000000003 8.106046850999999
P 4.4675475 29.484280000000005 10.212013148999999
P 4.4675475 25.272240000000007 10.212013148999999
In 0.0 25.272240000000007 14.212066851
In 2.9783649999999997 27.378260000000008 16.318033149
In 2.9783649999999997 31.590300000000003 16.318033149
In 0.0 29.484280000000005 14.212066851
P 1.4891825 27.378260000000008 14.212066851
P 1.4891825 31.590300000000003 14.212066851
P 4.4675475 29.484280000000005 16.318033149
P 4.4675475 25.272240000000007 16.318033149
In 0.0 25.272240000000007 20.318086851
In 2.9783649999999997 27.378260000000008 22.424053149
In 2.9783649999999997 31.590300000000003 22.424053149
In 0.0 29.484280000000005 20.318086851
P 1.4891825 27.378260000000008 20.318086851
P 1.4891825 31.590300000000003 20.318086851
P 4.4675475 29.484280000000005 22.424053149
P 4.4675475 25.272240000000007 22.424053149
In 0.0 25.272240000000007 26.424106851
In 0.0 29.484280000000005 26.424106851
P 1.4891825 27.378260000000008 26.424106851
P 4.4675475 25.272240000000007 28.530073149
P 4.4675475 33.69632000000001 10.212013148999999
In 0.0 33.69632000000001 14.212066851
P 4.4675475 33.69632000000001 16.318033149
In 0.0 33.69632000000001 20.318086851
