166

In 10.530100000000001 10.943200925268618 1.9999938612000001
P 12.6361621204 12.159136457411634 2.8597861387999997
P 10.5301421204 8.511402815655426 2.8597861387999997
In 10.530100000000001 10.943200925268618 6.859773861199999
P 12.6361621204 12.159136457411634 7.719566138799999
P 10.5301421204 8.511402815655426 7.719566138799999
In 10.530100000000001 10.943200925268618 11.719553861199998
P 12.6361621204 12.159136457411634 12.579346138799998
P 10.5301421204 8.511402815655426 12.579346138799998
In 14.742140000000001 18.238668208781032 1.9999938612000001
In 12.63612 14.590934567024826 1.9999938612000001
P 16.8482021204 19.454603740924046 2.8597861387999997
P 14.742182120399999 15.80687009916784 2.8597861387999997
In 14.742140000000001 18.238668208781032 6.859773861199999
In 12.63612 14.590934567024826 6.859773861199999
P 10.5301421204 15.80687009916784 7.719566138799999
P 16.8482021204 19.454603740924046 7.719566138799999
P 14.742182120399999 15.80687009916784 7.719566138799999
In 14.742140000000001 18.238668208781032 11.719553861199998
In 12.63612 14.590934567024826 11.719553861199998
P 16.8482021204 19.454603740924046 12.579346138799998
P 14.742182120399999 15.80687009916784 12.579346138799998
In 14.742140000000001 3.647733641756207 1.9999938612000001
P 12.636162120400002 4.863669173899221 2.8597861387999997
P 16.8482021204 4.863669173899221 2.8597861387999997
P 14.742182120399997 1.215935532143014 2.8597861387999997
In 14.742140000000001 3.647733641756207 6.859773861199999
In 10.530100000000001 3.647733641756207 6.859773861199999
P 12.636162120400002 4.863669173899221 7.719566138799999
P 16.8482021204 4.863669173899221 7.719566138799999
P 14.742182120399997 1.215935532143014 7.719566138799999
In 14.742140000000001 3.647733641756207 11.719553861199998
P 12.636162120400002 4.863669173899221 12.579346138799998
P 16.8482021204 4.863669173899221 12.579346138799998
P 14.742182120399997 1.215935532143014 12.579346138799998
In 12.63612 7.295467283512413 1.9999938612000001
In 18.95418 10.943200925268618 1.9999938612000001
In 16.84816 7.295467283512413 1.9999938612000001
In 14.742140000000001 10.943200925268618 1.9999938612000001
P 14.742182120400003 8.511402815655426 2.8597861387999997
P 16.848202120399996 12.159136457411634 2.8597861387999997
P 21.060242120399995 12.159136457411634 2.8597861387999997
P 18.954222120399997 8.511402815655426 2.8597861387999997
In 12.63612 7.295467283512413 6.859773861199999
In 18.95418 10.943200925268618 6.859773861199999
In 16.84816 7.295467283512413 6.859773861199999
In 14.742140000000001 10.943200925268618 6.859773861199999
P 14.742182120400003 8.511402815655426 7.719566138799999
P 16.848202120399996 12.159136457411634 7.719566138799999
P 21.060242120399995 12.159136457411634 7.719566138799999
P 18.954222120399997 8.511402815655426 7.719566138799999
In 12.63612 7.295467283512413 11.719553861199998
In 18.95418 10.943200925268618 11.719553861199998
In 16.84816 7.295467283512413 11.719553861199998
In 14.742140000000001 10.943200925268618 11.719553861199998
P 14.742182120400003 8.511402815655426 12.579346138799998
P 16.848202120399996 12.159136457411634 12.579346138799998
P 21.060242120399995 12.159136457411634 12.579346138799998
P 18.954222120399997 8.511402815655426 12.579346138799998
In 16.84816 14.590934567024826 1.9999938612000001
In 23.166220000000003 18.238668208781032 1.9999938612000001
In 21.060200000000002 14.590934567024826 1.9999938612000001
In 18.95418 18.238668208781032 1.9999938612000001
P 18.9542221204 15.80687009916784 2.8597861387999997
P 21.060242120399998 19.454603740924046 2.8597861387999997
P 25.272282120399996 19.454603740924046 2.8597861387999997
P 23.1662621204 15.80687009916784 2.8597861387999997
In 16.84816 14.590934567024826 6.859773861199999
In 23.166220000000003 18.238668208781032 6.859773861199999
In 21.060200000000002 14.590934567024826 6.859773861199999
In 18.95418 18.238668208781032 6.859773861199999
P 18.9542221204 15.80687009916784 7.719566138799999
P 21.060242120399998 19.454603740924046 7.719566138799999
P 25.272282120399996 19.454603740924046 7.719566138799999
P 23.1662621204 15.80687009916784 7.719566138799999
In 16.84816 14.590934567024826 11.719553861199998
In 23.166220000000003 18.238668208781032 11.719553861199998
In 21.060200000000002 14.590934567024826 11.719553861199998
In 18.95418 18.238668208781032 11.719553861199998
P 18.9542221204 15.80687009916784 12.579346138799998
P 21.060242120399998 19.454603740924046 12.579346138799998
P 25.272282120399996 19.454603740924046 12.579346138799998
P 23.1662621204 15.80687009916784 12.579346138799998
In 16.848159999999996 0.0 1.9999938612000001
In 23.166220000000003 3.647733641756207 1.9999938612000001
In 21.060200000000002 0.0 1.9999938612000001
In 18.954179999999997 3.647733641756207 1.9999938612000001
P 18.9542221204 1.215935532143014 2.8597861387999997
P 21.0602421204 4.863669173899221 2.8597861387999997
P 25.2722821204 4.863669173899221 2.8597861387999997
P 23.1662621204 1.215935532143014 2.8597861387999997
In 16.848159999999996 0.0 6.859773861199999
In 23.166220000000003 3.647733641756207 6.859773861199999
In 21.060200000000002 0.0 6.859773861199999
In 18.954179999999997 3.647733641756207 6.859773861199999
P 18.9542221204 1.215935532143014 7.719566138799999
P 21.0602421204 4.863669173899221 7.719566138799999
P 25.2722821204 4.863669173899221 7.719566138799999
P 23.1662621204 1.215935532143014 7.719566138799999
In 16.848159999999996 0.0 11.719553861199998
In 23.166220000000003 3.647733641756207 11.719553861199998
In 21.060200000000002 0.0 11.719553861199998
In 18.954179999999997 3.647733641756207 11.719553861199998
P 18.9542221204 1.215935532143014 12.579346138799998
P 21.0602421204 4.863669173899221 12.579346138799998
P 25.2722821204 4.863669173899221 12.579346138799998
P 23.1662621204 1.215935532143014 12.579346138799998
In 21.0602 7.295467283512413 1.9999938612000001
In 27.37826 10.943200925268618 1.9999938612000001
In 25.272240000000004 7.295467283512413 1.9999938612000001
In 23.166219999999996 10.943200925268618 1.9999938612000001
P 23.166262120400003 8.511402815655426 2.8597861387999997
P 25.272282120400003 12.159136457411634 2.8597861387999997
P 29.4843221204 12.159136457411634 2.8597861387999997
P 27.3783021204 8.511402815655426 2.8597861387999997
In 21.0602 7.295467283512413 6.859773861199999
In 27.37826 10.943200925268618 6.859773861199999
In 25.272240000000004 7.295467283512413 6.859773861199999
In 23.166219999999996 10.943200925268618 6.859773861199999
P 23.166262120400003 8.511402815655426 7.719566138799999
P 25.272282120400003 12.159136457411634 7.719566138799999
P 29.4843221204 12.159136457411634 7.719566138799999
P 27.3783021204 8.511402815655426 7.719566138799999
In 21.0602 7.295467283512413 11.719553861199998
In 27.37826 10.943200925268618 11.719553861199998
In 25.272240000000004 7.295467283512413 11.719553861199998
In 23.166219999999996 10.943200925268618 11.719553861199998
P 23.166262120400003 8.511402815655426 12.579346138799998
P 25.272282120400003 12.159136457411634 12.579346138799998
P 29.4843221204 12.159136457411634 12.579346138799998
P 27.3783021204 8.511402815655426 12.579346138799998
In 25.272239999999996 14.590934567024826 1.9999938612000001
In 29.484279999999995 14.590934567024826 1.9999938612000001
In 27.378259999999997 18.238668208781032 1.9999938612000001
P 27.3783021204 15.80687009916784 2.8597861387999997
In 25.272239999999996 14.590934567024826 6.859773861199999
In 29.484279999999995 14.590934567024826 6.859773861199999
In 27.378259999999997 18.238668208781032 6.859773861199999
P 27.3783021204 15.80687009916784 7.719566138799999
P 31.590342120400003 15.80687009916784 7.719566138799999
In 25.272239999999996 14.590934567024826 11.719553861199998
In 29.484279999999995 14.590934567024826 11.719553861199998
In 27.378259999999997 18.238668208781032 11.719553861199998
P 27.3783021204 15.80687009916784 12.579346138799998
In 25.27224 0.0 1.9999938612000001
In 27.37826 3.647733641756207 1.9999938612000001
P 27.378302120399997 1.215935532143014 2.8597861387999997
P 29.484322120399998 4.863669173899221 2.8597861387999997
In 25.27224 0.0 6.859773861199999
In 31.590299999999996 3.647733641756207 6.859773861199999
In 27.37826 3.647733641756207 6.859773861199999
P 27.378302120399997 1.215935532143014 7.719566138799999
P 29.484322120399998 4.863669173899221 7.719566138799999
In 25.27224 0.0 11.719553861199998
In 27.37826 3.647733641756207 11.719553861199998
P 27.378302120399997 1.215935532143014 12.579346138799998
P 29.484322120399998 4.863669173899221 12.579346138799998
In 29.484280000000005 7.295467283512413 1.9999938612000001
In 31.590300000000003 10.943200925268618 1.9999938612000001
P 31.5903421204 8.511402815655426 2.8597861387999997
In 29.484280000000005 7.295467283512413 6.859773861199999
In 31.590300000000003 10.943200925268618 6.859773861199999
P 31.5903421204 8.511402815655426 7.719566138799999
In 29.484280000000005 7.295467283512413 11.719553861199998
In 31.590300000000003 10.943200925268618 11.719553861199998
P 31.5903421204 8.511402815655426 12.579346138799998
