110

P 4.4675475 4.4675475 6.467507051999999
In 2.978365 2.978365 10.467572947999999
In 2.978365 0.0 13.445860792199998
In 0.0 2.978365 13.445860792199998
P 1.4891825 1.4891825 14.935047051999998
P 1.4891825 4.4675475 11.956759207799998
P 4.4675475 4.4675475 14.935047051999998
P 4.4675475 1.4891825 11.956759207799998
In 2.978365 2.978365 18.935112948
In 2.978365 5.95673 4.978320792199999
P 1.4891825 7.4459125 6.467507051999999
P 4.4675475 10.4242775 6.467507051999999
P 4.4675475 7.4459125 3.4892192077999997
In 0.0 5.95673 10.467572947999999
In 2.978365 8.935094999999999 10.467572947999999
In 2.978365 5.95673 13.445860792199998
In 0.0 8.935094999999999 13.445860792199998
P 1.4891825 7.4459125 14.935047051999998
P 1.4891825 10.4242775 11.956759207799998
P 4.4675475 10.4242775 14.935047051999998
P 4.4675475 7.4459125 11.956759207799998
In 2.978365 8.935094999999999 18.935112948
P 4.4675475 7.4459125 20.424299207799997
In 2.978365 11.91346 4.978320792199999
In 0.0 11.91346 10.467572947999999
In 2.978365 14.891825 10.467572947999999
In 2.978365 11.91346 13.445860792199998
P 1.4891825 13.4026425 14.935047051999998
P 4.4675475 16.381007500000003 14.935047051999998
P 4.4675475 13.4026425 11.956759207799998
P 4.4675475 13.4026425 20.424299207799997
In 5.95673 2.978365 4.978320792199999
P 7.4459125 1.4891825 6.467507051999999
P 7.4459125 4.4675475 3.4892192077999997
P 10.4242775 4.4675475 6.467507051999999
In 5.95673 0.0 10.467572947999999
In 8.935094999999999 2.978365 10.467572947999999
In 8.935094999999999 0.0 13.445860792199998
In 5.95673 2.978365 13.445860792199998
P 7.4459125 1.4891825 14.935047051999998
P 7.4459125 4.4675475 11.956759207799998
P 10.4242775 4.4675475 14.935047051999998
P 10.4242775 1.4891825 11.956759207799998
In 8.935094999999999 2.978365 18.935112948
P 7.4459125 4.4675475 20.424299207799997
In 8.935094999999999 5.95673 4.978320792199999
In 5.95673 8.935094999999999 4.978320792199999
P 7.4459125 7.4459125 6.467507051999999
P 7.4459125 10.4242775 3.4892192077999997
P 10.4242775 10.4242775 6.467507051999999
P 10.4242775 7.4459125 3.4892192077999997
In 5.95673 5.95673 10.467572947999999
In 8.935094999999999 8.935094999999999 10.467572947999999
In 8.935094999999999 5.95673 13.445860792199998
In 5.95673 8.935094999999999 13.445860792199998
P 7.4459125 7.4459125 14.935047051999998
P 7.4459125 10.4242775 11.956759207799998
P 10.4242775 10.4242775 14.935047051999998
P 10.4242775 7.4459125 11.956759207799998
In 5.95673 5.95673 18.935112948
In 8.935094999999999 8.935094999999999 18.935112948
In 8.935094999999999 5.95673 21.913400792199997
In 5.95673 8.935094999999999 21.913400792199997
P 7.4459125 10.4242775 20.424299207799997
P 10.4242775 7.4459125 20.424299207799997
In 8.935094999999999 11.91346 4.978320792199999
P 7.4459125 13.4026425 6.467507051999999
In 5.95673 11.91346 10.467572947999999
In 8.935094999999999 14.891825 10.467572947999999
In 8.935094999999999 11.91346 13.445860792199998
In 5.95673 14.891825 13.445860792199998
P 7.4459125 13.4026425 14.935047051999998
P 7.4459125 16.381007500000003 11.956759207799998
P 10.4242775 16.381007500000003 14.935047051999998
P 10.4242775 13.4026425 11.956759207799998
In 5.95673 11.91346 18.935112948
In 8.935094999999999 14.891825 18.935112948
In 8.935094999999999 11.91346 21.913400792199997
P 10.4242775 13.4026425 20.424299207799997
In 11.91346 2.978365 4.978320792199999
In 11.91346 0.0 10.467572947999999
In 14.891825 2.978365 10.467572947999999
In 11.91346 2.978365 13.445860792199998
P 13.4026425 1.4891825 14.935047051999998
P 13.4026425 4.4675475 11.956759207799998
P 16.381007500000003 4.4675475 14.935047051999998
P 13.4026425 4.4675475 20.424299207799997
In 11.91346 8.935094999999999 4.978320792199999
P 13.4026425 7.4459125 6.467507051999999
In 11.91346 5.95673 10.467572947999999
In 14.891825 8.935094999999999 10.467572947999999
In 14.891825 5.95673 13.445860792199998
In 11.91346 8.935094999999999 13.445860792199998
P 13.4026425 7.4459125 14.935047051999998
P 13.4026425 10.4242775 11.956759207799998
P 16.381007500000003 10.4242775 14.935047051999998
P 16.381007500000003 7.4459125 11.956759207799998
In 11.91346 5.95673 18.935112948
In 14.891825 8.935094999999999 18.935112948
In 11.91346 8.935094999999999 21.913400792199997
P 13.4026425 10.4242775 20.424299207799997
P 13.4026425 13.4026425 6.467507051999999
In 11.91346 11.91346 10.467572947999999
In 14.891825 14.891825 10.467572947999999
In 14.891825 11.91346 13.445860792199998
In 11.91346 14.891825 13.445860792199998
P 13.4026425 13.4026425 14.935047051999998
P 13.4026425 16.381007500000003 11.956759207799998
P 16.381007500000003 13.4026425 11.956759207799998
In 11.91346 11.91346 18.935112948
