20

In 6.318059999999999 3.647733641756207 1.9999938612
In 2.1060200000000004 3.647733641756207 1.9999938612
P 4.212082120400001 4.863669173899221 2.8597861387999997
P 8.4241221204 4.863669173899221 2.8597861387999997
P 6.3181021204 1.215935532143014 2.8597861387999997
In 6.318059999999999 3.647733641756207 6.8597738612
In 2.1060200000000004 3.647733641756207 6.8597738612
P 4.212082120400001 4.863669173899221 7.719566138799999
P 8.4241221204 4.863669173899221 7.719566138799999
P 6.3181021204 1.215935532143014 7.719566138799999
In 4.21204 7.295467283512413 1.9999938612
In 8.424079999999998 7.295467283512413 1.9999938612
In 6.318060000000001 10.94320092526862 1.9999938612
P 6.318102120400001 8.511402815655428 2.8597861387999997
P 10.5301421204 8.511402815655428 2.8597861387999997
In 4.21204 7.295467283512413 6.8597738612
In 8.424079999999998 7.295467283512413 6.8597738612
In 6.318060000000001 10.94320092526862 6.8597738612
P 6.318102120400001 8.511402815655428 7.719566138799999
P 10.5301421204 8.511402815655428 7.719566138799999
