56

P 8.424122120400002 4.863669173899221 2.8597861387999997
In 6.318060000000001 3.647733641756207 6.8597738612
P 8.424122120400002 4.863669173899221 7.719566138799999
In 10.530100000000001 10.94320092526862 1.9999938612
In 8.42408 7.295467283512413 1.9999938612
P 6.318102120400001 8.511402815655428 2.8597861387999997
P 8.424122120400002 12.159136457411634 2.8597861387999997
P 12.636162120400003 12.159136457411634 2.8597861387999997
P 10.5301421204 8.511402815655428 2.8597861387999997
In 10.530100000000001 10.94320092526862 6.8597738612
In 8.42408 7.295467283512413 6.8597738612
P 12.636162120400003 12.159136457411634 7.719566138799999
P 10.5301421204 8.511402815655428 7.719566138799999
In 14.74214 3.647733641756207 1.9999938612
In 12.636119999999998 0.0 1.9999938612
In 10.530100000000003 3.647733641756207 1.9999938612
P 10.5301421204 1.215935532143014 2.8597861387999997
P 12.636162120400002 4.863669173899221 2.8597861387999997
P 16.848202120400003 4.863669173899221 2.8597861387999997
P 14.742182120399999 1.215935532143014 2.8597861387999997
In 8.424080000000002 0.0 6.8597738612
In 14.74214 3.647733641756207 6.8597738612
In 12.636119999999998 0.0 6.8597738612
In 10.530100000000003 3.647733641756207 6.8597738612
P 10.5301421204 1.215935532143014 7.719566138799999
P 12.636162120400002 4.863669173899221 7.719566138799999
P 16.848202120400003 4.863669173899221 7.719566138799999
P 14.742182120399999 1.215935532143014 7.719566138799999
In 12.636120000000002 7.295467283512413 1.9999938612
In 18.954180000000004 10.94320092526862 1.9999938612
In 16.84816 7.295467283512413 1.9999938612
In 14.742140000000004 10.94320092526862 1.9999938612
P 14.742182120400003 8.511402815655428 2.8597861387999997
P 16.848202120400003 12.159136457411634 2.8597861387999997
P 21.0602421204 12.159136457411634 2.8597861387999997
P 18.954222120400004 8.511402815655428 2.8597861387999997
In 12.636120000000002 7.295467283512413 6.8597738612
In 18.954180000000004 10.94320092526862 6.8597738612
In 16.84816 7.295467283512413 6.8597738612
In 14.742140000000004 10.94320092526862 6.8597738612
P 14.742182120400003 8.511402815655428 7.719566138799999
P 16.848202120400003 12.159136457411634 7.719566138799999
P 18.954222120400004 8.511402815655428 7.719566138799999
In 16.848160000000004 0.0 1.9999938612
In 18.954180000000004 3.647733641756207 1.9999938612
P 18.9542221204 1.215935532143014 2.8597861387999997
P 21.0602421204 4.863669173899221 2.8597861387999997
In 16.848160000000004 0.0 6.8597738612
In 23.166220000000006 3.647733641756207 6.8597738612
In 21.060200000000005 0.0 6.8597738612
In 18.954180000000004 3.647733641756207 6.8597738612
P 18.9542221204 1.215935532143014 7.719566138799999
P 21.0602421204 4.863669173899221 7.719566138799999
In 21.060200000000005 7.295467283512413 1.9999938612
P 23.166262120400003 8.511402815655428 2.8597861387999997
In 21.060200000000005 7.295467283512413 6.8597738612
