172

In 2.978365 8.935095000000002 2.000032948
P 1.4891824999999999 10.424277500000002 3.4892192077999997
P 4.4675475 10.424277500000002 6.467507052
P 4.4675475 7.4459125 3.4892192077999997
In 2.978365 8.935095000000002 10.467572947999999
P 1.4891824999999999 10.424277500000002 11.9567592078
P 4.4675475 10.424277500000002 14.935047052
P 4.4675475 7.4459125 11.9567592078
In 2.978365 14.891824999999999 2.000032948
In 2.978365 11.91346 4.978320792199999
In 0.0 14.891824999999999 4.978320792199999
P 1.4891824999999999 13.4026425 6.467507052
P 1.4891824999999999 16.381007500000003 3.4892192077999997
P 4.4675475 16.381007500000003 6.467507052
P 4.4675475 13.4026425 3.4892192077999997
In 0.0 11.91346 10.467572947999999
In 2.978365 14.891824999999999 10.467572947999999
In 2.978365 11.91346 13.445860792199998
P 1.4891824999999999 13.4026425 14.935047052
P 1.4891824999999999 16.381007500000003 11.9567592078
P 4.4675475 16.381007500000003 14.935047052
P 4.4675475 13.4026425 11.9567592078
In 2.978365 17.870190000000008 4.978320792199999
P 1.4891824999999999 19.35937250000001 6.467507052
P 4.4675475 22.337737500000003 6.467507052
P 4.4675475 19.35937250000001 3.4892192077999997
In 2.978365 20.848555000000005 10.467572947999999
In 2.978365 17.870190000000008 13.445860792199998
P 4.4675475 19.35937250000001 11.9567592078
P 7.4459125 4.467547500000001 3.4892192077999997
P 10.4242775 4.467547500000001 6.467507052
In 8.935095 2.978365 10.467572947999999
P 7.4459125 4.467547500000001 11.9567592078
P 10.4242775 4.467547500000001 14.935047052
In 5.95673 5.95673 2.000032948
In 8.935095 8.935095000000002 2.000032948
In 8.935095 5.95673 4.978320792199999
In 5.95673 8.935095000000002 4.978320792199999
P 7.4459125 7.4459125 6.467507052
P 7.4459125 10.424277500000002 3.4892192077999997
P 10.4242775 10.424277500000002 6.467507052
P 10.4242775 7.4459125 3.4892192077999997
In 5.95673 5.95673 10.467572947999999
In 8.935095 8.935095000000002 10.467572947999999
In 8.935095 5.95673 13.445860792199998
In 5.95673 8.935095000000002 13.445860792199998
P 7.4459125 7.4459125 14.935047052
P 7.4459125 10.424277500000002 11.9567592078
P 10.4242775 10.424277500000002 14.935047052
P 10.4242775 7.4459125 11.9567592078
In 5.95673 11.91346 2.000032948
In 8.935095 14.891824999999999 2.000032948
In 8.935095 11.91346 4.978320792199999
In 5.95673 14.891824999999999 4.978320792199999
P 7.4459125 13.4026425 6.467507052
P 7.4459125 16.381007500000003 3.4892192077999997
P 10.4242775 16.381007500000003 6.467507052
P 10.4242775 13.4026425 3.4892192077999997
In 5.95673 11.91346 10.467572947999999
In 8.935095 14.891824999999999 10.467572947999999
In 8.935095 11.91346 13.445860792199998
In 5.95673 14.891824999999999 13.445860792199998
P 7.4459125 13.4026425 14.935047052
P 7.4459125 16.381007500000003 11.9567592078
P 10.4242775 16.381007500000003 14.935047052
P 10.4242775 13.4026425 11.9567592078
In 5.95673 17.870190000000008 2.000032948
In 8.935095 20.848555000000005 2.000032948
In 8.935095 17.870190000000008 4.978320792199999
In 5.95673 20.848555000000005 4.978320792199999
P 7.4459125 19.35937250000001 6.467507052
P 7.4459125 22.337737500000003 3.4892192077999997
P 10.4242775 22.337737500000003 6.467507052
P 10.4242775 19.35937250000001 3.4892192077999997
In 5.95673 17.870190000000008 10.467572947999999
In 8.935095 20.848555000000005 10.467572947999999
In 8.935095 17.870190000000008 13.445860792199998
In 5.95673 20.848555000000005 13.445860792199998
P 7.4459125 19.35937250000001 14.935047052
P 7.4459125 22.337737500000003 11.9567592078
P 10.4242775 22.337737500000003 14.935047052
P 10.4242775 19.35937250000001 11.9567592078
In 8.935095 23.82692 4.978320792199999
In 5.95673 23.82692 10.467572947999999
In 8.935095 23.82692 13.445860792199998
P 10.4242775 25.3161025 11.9567592078
In 11.913459999999999 2.978365 4.978320792199999
P 13.4026425 4.467547500000001 3.4892192077999997
P 16.381007500000003 4.467547500000001 6.467507052
P 13.4026425 4.467547500000001 11.9567592078
In 11.913459999999999 5.95673 2.000032948
In 14.891825 8.935095000000002 2.000032948
In 14.891825 5.95673 4.978320792199999
In 11.913459999999999 8.935095000000002 4.978320792199999
P 13.4026425 7.4459125 6.467507052
P 13.4026425 10.424277500000002 3.4892192077999997
P 16.381007500000003 10.424277500000002 6.467507052
P 16.381007500000003 7.4459125 3.4892192077999997
In 11.913459999999999 5.95673 10.467572947999999
In 14.891825 8.935095000000002 10.467572947999999
In 14.891825 5.95673 13.445860792199998
In 11.913459999999999 8.935095000000002 13.445860792199998
P 13.4026425 7.4459125 14.935047052
P 13.4026425 10.424277500000002 11.9567592078
P 16.381007500000003 10.424277500000002 14.935047052
P 16.381007500000003 7.4459125 11.9567592078
In 11.913459999999999 11.91346 2.000032948
In 14.891825 14.891824999999999 2.000032948
In 14.891825 11.91346 4.978320792199999
In 11.913459999999999 14.891824999999999 4.978320792199999
P 13.4026425 13.4026425 6.467507052
P 13.4026425 16.381007500000003 3.4892192077999997
P 16.381007500000003 16.381007500000003 6.467507052
P 16.381007500000003 13.4026425 3.4892192077999997
In 11.913459999999999 11.91346 10.467572947999999
In 14.891825 14.891824999999999 10.467572947999999
In 14.891825 11.91346 13.445860792199998
In 11.913459999999999 14.891824999999999 13.445860792199998
P 13.4026425 13.4026425 14.935047052
P 13.4026425 16.381007500000003 11.9567592078
P 16.381007500000003 16.381007500000003 14.935047052
P 16.381007500000003 13.4026425 11.9567592078
In 11.913459999999999 17.870190000000008 2.000032948
In 14.891825 20.848555000000005 2.000032948
In 14.891825 17.870190000000008 4.978320792199999
In 11.913459999999999 20.848555000000005 4.978320792199999
P 13.4026425 19.35937250000001 6.467507052
P 13.4026425 22.337737500000003 3.4892192077999997
P 16.381007500000003 22.337737500000003 6.467507052
P 16.381007500000003 19.35937250000001 3.4892192077999997
In 11.913459999999999 17.870190000000008 10.467572947999999
In 14.891825 20.848555000000005 10.467572947999999
In 14.891825 17.870190000000008 13.445860792199998
In 11.913459999999999 20.848555000000005 13.445860792199998
P 13.4026425 19.35937250000001 14.935047052
P 13.4026425 22.337737500000003 11.9567592078
P 16.381007500000003 22.337737500000003 14.935047052
P 16.381007500000003 19.35937250000001 11.9567592078
In 11.913459999999999 23.82692 2.000032948
In 14.891825 23.82692 4.978320792199999
P 13.4026425 25.3161025 6.467507052
In 11.913459999999999 23.82692 10.467572947999999
In 14.891825 23.82692 13.445860792199998
In 17.87019 8.935095000000002 4.978320792199999
P 19.3593725 7.4459125 6.467507052
P 19.3593725 10.424277500000002 3.4892192077999997
In 17.87019 5.95673 10.467572947999999
In 20.848555 8.935095000000002 10.467572947999999
In 17.87019 8.935095000000002 13.445860792199998
P 19.3593725 10.424277500000002 11.9567592078
In 17.87019 11.91346 2.000032948
In 20.848555 14.891824999999999 2.000032948
In 20.848555 11.91346 4.978320792199999
In 17.87019 14.891824999999999 4.978320792199999
P 19.3593725 13.4026425 6.467507052
P 19.3593725 16.381007500000003 3.4892192077999997
P 22.337737500000003 16.381007500000003 6.467507052
In 17.87019 11.91346 10.467572947999999
In 20.848555 14.891824999999999 10.467572947999999
In 20.848555 11.91346 13.445860792199998
In 17.87019 14.891824999999999 13.445860792199998
P 19.3593725 13.4026425 14.935047052
P 19.3593725 16.381007500000003 11.9567592078
P 22.337737500000003 13.4026425 11.9567592078
In 17.87019 17.870190000000008 2.000032948
In 20.848555 17.870190000000008 4.978320792199999
In 17.87019 20.848555000000005 4.978320792199999
P 19.3593725 19.35937250000001 6.467507052
In 17.87019 17.870190000000008 10.467572947999999
In 20.848555 17.870190000000008 13.445860792199998
In 17.87019 20.848555000000005 13.445860792199998
P 19.3593725 19.35937250000001 14.935047052
