18

In 2.9783649999999997 2.10602 4.105993149
In 2.9783649999999997 6.31806 4.105993149
In 0.0 4.21204 2.000026851
P 1.4891825 6.31806 2.000026851
P 4.4675475 4.21204 4.105993149
In 2.9783649999999997 6.31806 10.212013149
In 0.0 4.21204 8.106046851
P 1.4891825 2.10602 8.106046851
P 1.4891825 6.31806 8.106046851
P 4.4675475 4.21204 10.212013149
In 0.0 8.424079999999998 2.000026851
In 2.9783649999999997 10.530100000000001 4.105993149
P 1.4891825 10.530100000000001 2.000026851
P 4.4675475 8.424079999999998 4.105993149
In 0.0 8.424079999999998 8.106046851
In 2.9783649999999997 10.530100000000001 10.212013149
P 1.4891825 10.530100000000001 8.106046851
P 4.4675475 8.424079999999998 10.212013149
