80

P 8.4241221204 4.863669173899221 2.8597861387999997
P 8.4241221204 4.863669173899221 7.719566138799999
In 10.530100000000001 10.94320092526862 1.9999938612
In 8.42408 7.295467283512414 1.9999938612
In 6.318060000000001 10.94320092526862 1.9999938612
P 6.318102120400001 8.511402815655428 2.8597861387999997
P 8.424122120400002 12.159136457411634 2.8597861387999997
P 12.636162120400002 12.159136457411634 2.8597861387999997
P 10.5301421204 8.511402815655428 2.8597861387999997
In 10.530100000000001 10.94320092526862 6.8597738612
In 8.42408 7.295467283512414 6.8597738612
In 6.318060000000001 10.94320092526862 6.8597738612
P 6.318102120400001 8.511402815655428 7.719566138799999
P 8.424122120400002 12.159136457411634 7.719566138799999
P 12.636162120400002 12.159136457411634 7.719566138799999
P 10.5301421204 8.511402815655428 7.719566138799999
In 8.42408 14.590934567024826 1.9999938612
In 14.742140000000003 18.238668208781036 1.9999938612
In 12.63612 14.590934567024826 1.9999938612
In 10.530100000000003 18.238668208781036 1.9999938612
P 10.530142120400003 15.80687009916784 2.8597861387999997
P 12.636162120400002 19.454603740924046 2.8597861387999997
P 16.848202120400003 19.454603740924046 2.8597861387999997
P 14.742182120400003 15.80687009916784 2.8597861387999997
In 8.42408 14.590934567024826 6.8597738612
In 14.742140000000003 18.238668208781036 6.8597738612
In 12.63612 14.590934567024826 6.8597738612
In 10.530100000000003 18.238668208781036 6.8597738612
P 10.530142120400003 15.80687009916784 7.719566138799999
P 12.636162120400002 19.454603740924046 7.719566138799999
P 16.848202120400003 19.454603740924046 7.719566138799999
P 14.742182120400003 15.80687009916784 7.719566138799999
In 12.636120000000002 21.88640185053724 1.9999938612
In 16.84816 21.88640185053724 1.9999938612
P 14.742182120400003 23.102337382680254 2.8597861387999997
P 18.9542221204 23.102337382680254 2.8597861387999997
In 12.636120000000002 21.88640185053724 6.8597738612
In 16.84816 21.88640185053724 6.8597738612
P 14.742182120400003 23.102337382680254 7.719566138799999
P 18.9542221204 23.102337382680254 7.719566138799999
In 14.742140000000001 3.647733641756207 1.9999938612
In 10.5301 3.647733641756207 1.9999938612
P 12.636162120400002 4.863669173899221 2.8597861387999997
P 16.8482021204 4.863669173899221 2.8597861387999997
In 14.742140000000001 3.647733641756207 6.8597738612
In 10.5301 3.647733641756207 6.8597738612
P 12.636162120400002 4.863669173899221 7.719566138799999
P 16.8482021204 4.863669173899221 7.719566138799999
In 12.636119999999998 7.295467283512414 1.9999938612
In 18.95418 10.94320092526862 1.9999938612
In 16.84816 7.295467283512414 1.9999938612
In 14.742140000000004 10.94320092526862 1.9999938612
P 14.742182120400003 8.511402815655428 2.8597861387999997
P 16.848202120400003 12.159136457411634 2.8597861387999997
P 21.060242120399998 12.159136457411634 2.8597861387999997
P 18.9542221204 8.511402815655428 2.8597861387999997
In 12.636119999999998 7.295467283512414 6.8597738612
In 18.95418 10.94320092526862 6.8597738612
In 16.84816 7.295467283512414 6.8597738612
In 14.742140000000004 10.94320092526862 6.8597738612
P 14.742182120400003 8.511402815655428 7.719566138799999
P 16.848202120400003 12.159136457411634 7.719566138799999
P 21.060242120399998 12.159136457411634 7.719566138799999
P 18.9542221204 8.511402815655428 7.719566138799999
In 16.848159999999996 14.590934567024826 1.9999938612
In 23.166220000000003 18.238668208781036 1.9999938612
In 21.060200000000002 14.590934567024826 1.9999938612
In 18.954179999999997 18.238668208781036 1.9999938612
P 18.9542221204 15.80687009916784 2.8597861387999997
P 21.0602421204 19.454603740924046 2.8597861387999997
P 23.1662621204 15.80687009916784 2.8597861387999997
In 16.848159999999996 14.590934567024826 6.8597738612
In 23.166220000000003 18.238668208781036 6.8597738612
In 21.060200000000002 14.590934567024826 6.8597738612
In 18.954179999999997 18.238668208781036 6.8597738612
P 18.9542221204 15.80687009916784 7.719566138799999
P 21.0602421204 19.454603740924046 7.719566138799999
P 23.1662621204 15.80687009916784 7.719566138799999
In 21.060200000000002 21.88640185053724 1.9999938612
In 21.060200000000002 21.88640185053724 6.8597738612
